# generated using pymatgen
data_H12PbC6S(I2N)2
_symmetry_space_group_name_H-M   'P 1'
_cell_length_a   12.19329808
_cell_length_b   12.39894526
_cell_length_c   12.60067957
_cell_angle_alpha   89.90288385
_cell_angle_beta   90.34102138
_cell_angle_gamma   90.34312960
_symmetry_Int_Tables_number   1
_chemical_formula_structural   H12PbC6S(I2N)2
_chemical_formula_sum   'H48 Pb4 C24 S4 I16 N8'
_cell_volume   1904.95105988
_cell_formula_units_Z   4
loop_
 _symmetry_equiv_pos_site_id
 _symmetry_equiv_pos_as_xyz
  1  'x, y, z'
loop_
 _atom_site_type_symbol
 _atom_site_label
 _atom_site_symmetry_multiplicity
 _atom_site_fract_x
 _atom_site_fract_y
 _atom_site_fract_z
 _atom_site_occupancy
  H  H0  1  0.24708064  0.30259072  0.85740207  1
  H  H1  1  0.32998904  0.22516168  0.78343293  1
  H  H2  1  0.32506513  0.35840266  0.76147270  1
  H  H3  1  0.13082689  0.34475711  0.71040743  1
  H  H4  1  0.13615301  0.20447725  0.73839074  1
  H  H5  1  0.21062561  0.07329287  0.59744089  1
  H  H6  1  0.27257024  0.07792156  0.39548979  1
  H  H7  1  0.36066629  0.35491485  0.29688994  1
  H  H8  1  0.35410003  0.21662469  0.26179653  1
  H  H9  1  0.16511855  0.24010142  0.20826776  1
  H  H10  1  0.24495457  0.33019899  0.14896537  1
  H  H11  1  0.16260854  0.36819900  0.24828027  1
  H  H12  1  0.31225040  0.75331898  0.85681647  1
  H  H13  1  0.22945009  0.67283691  0.78839967  1
  H  H14  1  0.36270657  0.67312233  0.76024658  1
  H  H15  1  0.35207927  0.86530588  0.70808589  1
  H  H16  1  0.21035732  0.86183593  0.73833457  1
  H  H17  1  0.07157720  0.78786913  0.59847209  1
  H  H18  1  0.07177742  0.72569537  0.39681380  1
  H  H19  1  0.35013826  0.63405008  0.29869057  1
  H  H20  1  0.21013251  0.64465434  0.26079199  1
  H  H21  1  0.24360723  0.82494054  0.19973036  1
  H  H22  1  0.33959293  0.74601609  0.15167838  1
  H  H23  1  0.36963985  0.83107364  0.25099245  1
  H  H24  1  0.67977417  0.23884025  0.14622050  1
  H  H25  1  0.77024712  0.16335093  0.21132751  1
  H  H26  1  0.63767681  0.15750016  0.24455360  1
  H  H27  1  0.64384209  0.35021464  0.29433576  1
  H  H28  1  0.78495819  0.35228819  0.26134544  1
  H  H29  1  0.92853958  0.27690992  0.39678330  1
  H  H30  1  0.93400350  0.21498455  0.59857995  1
  H  H31  1  0.66056750  0.12074394  0.70638523  1
  H  H32  1  0.80300906  0.13398278  0.73767649  1
  H  H33  1  0.76862243  0.31869872  0.79130169  1
  H  H34  1  0.68917645  0.23034243  0.85525452  1
  H  H35  1  0.63618481  0.30939879  0.75861786  1
  H  H36  1  0.74644157  0.67247014  0.14838724  1
  H  H37  1  0.82949383  0.76194565  0.20338336  1
  H  H38  1  0.83071972  0.63501758  0.24732907  1
  H  H39  1  0.63405273  0.65375105  0.29729169  1
  H  H40  1  0.64294757  0.79157460  0.25982106  1
  H  H41  1  0.72316336  0.92941612  0.39447733  1
  H  H42  1  0.78689503  0.93357213  0.59670529  1
  H  H43  1  0.87888211  0.66640282  0.70481077  1
  H  H44  1  0.86243689  0.80497501  0.73765048  1
  H  H45  1  0.67636902  0.76304070  0.79360607  1
  H  H46  1  0.76864769  0.68741018  0.85431217  1
  H  H47  1  0.68701606  0.63459312  0.75756426  1
  Pb  Pb48  1  0.00068413  0.01046584  0.99639011  1
  Pb  Pb49  1  0.99677425  0.50728884  -0.00008502  1
  Pb  Pb50  1  0.48477029  0.01372555  0.99895503  1
  Pb  Pb51  1  0.50814982  0.50611885  0.99260668  1
  C  C52  1  0.18284994  0.27286585  0.70565867  1
  C  C53  1  0.21716419  0.24780506  0.59555642  1
  C  C54  1  0.22701051  0.14625428  0.55199248  1
  C  C55  1  0.25849001  0.14882080  0.44428361  1
  C  C56  1  0.27182671  0.25232071  0.40592451  1
  C  C57  1  0.30785659  0.28284875  0.29770691  1
  C  C58  1  0.27791691  0.81462431  0.70478055  1
  C  C59  1  0.24921301  0.77936537  0.59542887  1
  C  C60  1  0.14488968  0.77019970  0.55285047  1
  C  C61  1  0.14507181  0.73933975  0.44483368  1
  C  C62  1  0.24942067  0.72583421  0.40533052  1
  C  C63  1  0.27920131  0.68830999  0.29750038  1
  C  C64  1  0.71953282  0.30264195  0.29634571  1
  C  C65  1  0.75111328  0.26861561  0.40529690  1
  C  C66  1  0.85651414  0.26022090  0.44485673  1
  C  C67  1  0.85945257  0.22895801  0.55274430  1
  C  C68  1  0.75627476  0.21424981  0.59514805  1
  C  C69  1  0.73150984  0.17577408  0.70404234  1
  C  C70  1  0.68836698  0.72475495  0.29642215  1
  C  C71  1  0.72660712  0.75507858  0.40432497  1
  C  C72  1  0.73821156  0.85845135  0.44325201  1
  C  C73  1  0.76947639  0.86069001  0.55142643  1
  C  C74  1  0.78085364  0.75895712  0.59474214  1
  C  C75  1  0.82092225  0.73407664  0.70337443  1
  S  S76  1  0.24582892  0.34692353  0.50299595  1
  S  S77  1  0.34775405  0.75047812  0.50184212  1
  S  S78  1  0.65505837  0.23839982  0.50143978  1
  S  S79  1  0.75384730  0.65994903  0.50140962  1
  I  I80  1  0.24314010  0.91222285  0.99044297  1
  I  I81  1  0.25333667  0.55958977  0.00768615  1
  I  I82  1  0.74060183  0.06412329  0.98250413  1
  I  I83  1  0.75147865  0.42059467  0.01407472  1
  I  I84  1  0.07282684  0.25657070  0.98651150  1
  I  I85  1  0.92349579  0.75285296  0.98928881  1
  I  I86  1  0.43359181  0.25980793  0.02454830  1
  I  I87  1  0.56073276  0.75759493  0.00239628  1
  I  I88  1  0.00402569  -0.00012324  0.74137233  1
  I  I89  1  -0.00226793  0.01792960  0.24894296  1
  I  I90  1  0.97881708  0.48973165  0.75140462  1
  I  I91  1  0.99728494  0.50398963  0.26570942  1
  I  I92  1  0.45415627  0.06052451  0.75203132  1
  I  I93  1  0.49558791  0.00141994  0.26294320  1
  I  I94  1  0.50418912  0.50372872  0.72609328  1
  I  I95  1  0.50438293  0.50361557  0.24002221  1
  N  N96  1  0.27771932  0.29180206  0.78134230  1
  N  N97  1  0.21422333  0.30691889  0.22212678  1
  N  N98  1  0.29736970  0.72217571  0.78134603  1
  N  N99  1  0.30978352  0.77803277  0.22163608  1
  N  N100  1  0.70068732  0.20959869  0.22073583  1
  N  N101  1  0.70419076  0.26509040  0.78127883  1
  N  N102  1  0.77940558  0.69682147  0.22042540  1
  N  N103  1  0.73189289  0.70219119  0.78074919  1
