# generated using pymatgen
data_H16PbC9(I2N)2
_symmetry_space_group_name_H-M   'P 1'
_cell_length_a   12.33559882
_cell_length_b   12.25989722
_cell_length_c   13.13723317
_cell_angle_alpha   88.63378171
_cell_angle_beta   89.01784066
_cell_angle_gamma   90.29863711
_symmetry_Int_Tables_number   1
_chemical_formula_structural   H16PbC9(I2N)2
_chemical_formula_sum   'H64 Pb4 C36 I16 N8'
_cell_volume   1985.89745324
_cell_formula_units_Z   4
loop_
 _symmetry_equiv_pos_site_id
 _symmetry_equiv_pos_as_xyz
  1  'x, y, z'
loop_
 _atom_site_type_symbol
 _atom_site_label
 _atom_site_symmetry_multiplicity
 _atom_site_fract_x
 _atom_site_fract_y
 _atom_site_fract_z
 _atom_site_occupancy
  H  H0  1  0.25383967  0.00021963  0.45906104  1
  H  H1  1  0.27491719  0.05933441  0.33596306  1
  H  H2  1  0.14220330  0.04983308  0.38800997  1
  H  H3  1  0.28225102  0.10530281  0.60050068  1
  H  H4  1  0.35987067  0.35114890  0.73264317  1
  H  H5  1  0.35190082  0.20614968  0.73762311  1
  H  H6  1  0.16514076  0.35607196  0.77432448  1
  H  H7  1  0.23691909  0.28791401  0.86193051  1
  H  H8  1  0.16112155  0.21969300  0.78155041  1
  H  H9  1  0.27102496  0.45668986  0.58623818  1
  H  H10  1  0.21696064  0.44942493  0.40571962  1
  H  H11  1  0.12969745  0.34098011  0.27570514  1
  H  H12  1  0.13876283  0.19709152  0.27459206  1
  H  H13  1  0.32168230  0.35054723  0.22170237  1
  H  H14  1  0.24062718  0.28489142  0.14074193  1
  H  H15  1  0.32569586  0.21553280  0.21442635  1
  H  H16  1  0.00180165  0.73795821  0.46081472  1
  H  H17  1  0.06033097  0.71831056  0.33863357  1
  H  H18  1  0.05105895  0.85113679  0.38681448  1
  H  H19  1  0.10625645  0.71523323  0.60519089  1
  H  H20  1  0.35351597  0.64725909  0.74395004  1
  H  H21  1  0.20940609  0.64290719  0.74517920  1
  H  H22  1  0.34344223  0.84373504  0.77538812  1
  H  H23  1  0.27853555  0.76761983  0.86504065  1
  H  H24  1  0.20794341  0.83783875  0.77856738  1
  H  H25  1  0.45528948  0.72674419  0.59146231  1
  H  H26  1  0.44811892  0.77575287  0.40731525  1
  H  H27  1  0.33886313  0.86226666  0.27285394  1
  H  H28  1  0.19578957  0.84962523  0.27186202  1
  H  H29  1  0.35142115  0.66952853  0.22808187  1
  H  H30  1  0.28307866  0.74801649  0.14367111  1
  H  H31  1  0.21708932  0.66111787  0.22185150  1
  H  H32  1  0.99949236  0.24599755  0.54332813  1
  H  H33  1  0.93882558  0.22235322  0.66490694  1
  H  H34  1  0.94837688  0.35702287  0.61361484  1
  H  H35  1  0.89676276  0.21607914  0.39980461  1
  H  H36  1  0.65398932  0.13317828  0.26640872  1
  H  H37  1  0.79791523  0.13927427  0.26399731  1
  H  H38  1  0.65286786  0.32773373  0.21698114  1
  H  H39  1  0.71988743  0.24906589  0.13374690  1
  H  H40  1  0.78816406  0.32981206  0.21119781  1
  H  H41  1  0.54769029  0.22426516  0.40789072  1
  H  H42  1  0.55188824  0.27920990  0.58820512  1
  H  H43  1  0.65948291  0.36906994  0.71980925  1
  H  H44  1  0.80178224  0.35218997  0.72678619  1
  H  H45  1  0.63692428  0.17566125  0.76951662  1
  H  H46  1  0.70345627  0.24969468  0.85497829  1
  H  H47  1  0.77016256  0.16374750  0.78230739  1
  H  H48  1  0.75862363  1.00403431  0.54527509  1
  H  H49  1  0.78136716  0.94199036  0.66613057  1
  H  H50  1  0.64768287  0.95218434  0.61983529  1
  H  H51  1  0.78385414  0.90234059  0.40017003  1
  H  H52  1  0.86465506  0.66221781  0.26276055  1
  H  H53  1  0.85338036  0.80711366  0.25993244  1
  H  H54  1  0.67074176  0.65182485  0.22358383  1
  H  H55  1  0.74633090  0.72185924  0.13567478  1
  H  H56  1  0.66472953  0.78778979  0.21584354  1
  H  H57  1  0.77191898  0.55099473  0.40774102  1
  H  H58  1  0.72113125  0.55350560  0.59128699  1
  H  H59  1  0.64220245  0.65608255  0.72979763  1
  H  H60  1  0.64665050  0.80041335  0.73183395  1
  H  H61  1  0.83608893  0.65338686  0.77055500  1
  H  H62  1  0.75839478  0.71620129  0.85743462  1
  H  H63  1  0.83754753  0.78863007  0.77744855  1
  Pb  Pb64  1  0.00157571  0.00266076  0.00291539  1
  Pb  Pb65  1  0.00134740  0.50639007  0.00375363  1
  Pb  Pb66  1  0.49626137  0.00243969  0.00225830  1
  Pb  Pb67  1  0.50655135  0.50058190  -0.00118943  1
  C  C68  1  0.22730010  0.06568001  0.40714783  1
  C  C69  1  0.23976775  0.17496501  0.45477188  1
  C  C70  1  0.26765423  0.18080052  0.55720556  1
  C  C71  1  0.27791832  0.28055307  0.60566014  1
  C  C72  1  0.30846183  0.28080318  0.71559547  1
  C  C73  1  0.26143153  0.37798955  0.55020238  1
  C  C74  1  0.23252854  0.37364796  0.44827006  1
  C  C75  1  0.22123659  0.27336953  0.40000944  1
  C  C76  1  0.18350708  0.27185488  0.29191085  1
  C  C77  1  0.06697414  0.76545834  0.40850728  1
  C  C78  1  0.17545520  0.75371605  0.45723948  1
  C  C79  1  0.18129993  0.72895940  0.56138553  1
  C  C80  1  0.28045293  0.72046546  0.61090072  1
  C  C81  1  0.28058267  0.69267152  0.72279766  1
  C  C82  1  0.37715000  0.73532426  0.55451166  1
  C  C83  1  0.37291814  0.76101990  0.45068718  1
  C  C84  1  0.27312030  0.77082375  0.40161463  1
  C  C85  1  0.27073212  0.80691206  0.29167094  1
  C  C86  1  0.93331968  0.27155327  0.59399877  1
  C  C87  1  0.82552084  0.25894421  0.54403127  1
  C  C88  1  0.82120983  0.23081021  0.44165054  1
  C  C89  1  0.72283644  0.21911917  0.39153460  1
  C  C90  1  0.72411083  0.18496669  0.28272367  1
  C  C91  1  0.62523635  0.23524935  0.44518793  1
  C  C92  1  0.62786232  0.26463291  0.54692869  1
  C  C93  1  0.72679971  0.27654699  0.59684907  1
  C  C94  1  0.72611076  0.31205418  0.70543236  1
  C  C95  1  0.73248061  0.93716052  0.59703570  1
  C  C96  1  0.74319379  0.82912189  0.54648588  1
  C  C97  1  0.76868790  0.82589609  0.44254389  1
  C  C98  1  0.77827566  0.72750469  0.39162274  1
  C  C99  1  0.81118429  0.73059192  0.28121397  1
  C  C100  1  0.76223651  0.62863411  0.44578716  1
  C  C101  1  0.73554569  0.63031200  0.54927870  1
  C  C102  1  0.72600544  0.72929569  0.60021653  1
  C  C103  1  0.69288601  0.72785169  0.71083452  1
  I  I104  1  0.24782997  0.92217315  0.02590490  1
  I  I105  1  0.25440572  0.56565147  0.99531545  1
  I  I106  1  0.74734070  0.07329995  0.00511192  1
  I  I107  1  0.75375390  0.42964111  0.97623311  1
  I  I108  1  0.07300523  0.25486552  0.01556867  1
  I  I109  1  0.92051006  0.75262620  0.01449838  1
  I  I110  1  0.42649265  0.25190655  0.98933853  1
  I  I111  1  0.56840248  0.75214995  0.98149841  1
  I  I112  1  0.02974400  0.98836025  0.75436873  1
  I  I113  1  0.97832901  0.01108013  0.24053009  1
  I  I114  1  0.00627090  0.52260064  0.75558279  1
  I  I115  1  0.97533769  0.48249715  0.24520164  1
  I  I116  1  0.47770667  0.00983551  0.75447246  1
  I  I117  1  0.50357514  0.99027542  0.24336404  1
  I  I118  1  0.50336059  0.49943667  0.76217269  1
  I  I119  1  0.50171801  0.49867032  0.25500374  1
  N  N120  1  0.21169654  0.28673832  0.78687037  1
  N  N121  1  0.27413552  0.28143495  0.21318180  1
  N  N122  1  0.27737469  0.79146204  0.78875712  1
  N  N123  1  0.28145087  0.71496207  0.21771519  1
  N  N124  1  0.72079404  0.27933056  0.20709758  1
  N  N125  1  0.70787288  0.21936819  0.78173228  1
  N  N126  1  0.71663363  0.72218627  0.21048374  1
  N  N127  1  0.78708419  0.72123446  0.78262077  1
