# generated using pymatgen
data_H12PbC6I4N2O
_symmetry_space_group_name_H-M   'P 1'
_cell_length_a   12.46528657
_cell_length_b   12.56835542
_cell_length_c   11.93683499
_cell_angle_alpha   90.13268659
_cell_angle_beta   89.95923712
_cell_angle_gamma   89.88100094
_symmetry_Int_Tables_number   1
_chemical_formula_structural   H12PbC6I4N2O
_chemical_formula_sum   'H48 Pb4 C24 I16 N8 O4'
_cell_volume   1870.11235126
_cell_formula_units_Z   4
loop_
 _symmetry_equiv_pos_site_id
 _symmetry_equiv_pos_as_xyz
  1  'x, y, z'
loop_
 _atom_site_type_symbol
 _atom_site_label
 _atom_site_symmetry_multiplicity
 _atom_site_fract_x
 _atom_site_fract_y
 _atom_site_fract_z
 _atom_site_occupancy
  H  H0  1  0.30174594  0.26748130  0.80987154  1
  H  H1  1  0.31563057  0.37901587  0.73517431  1
  H  H2  1  0.22138295  0.36998964  0.83545532  1
  H  H3  1  0.12721358  0.35887556  0.66949857  1
  H  H4  1  0.12590828  0.23217513  0.73584523  1
  H  H5  1  0.20419276  0.06720544  0.60304085  1
  H  H6  1  0.27638294  0.07049157  0.38422342  1
  H  H7  1  0.35983690  0.36700296  0.33258296  1
  H  H8  1  0.36653443  0.24239000  0.26222967  1
  H  H9  1  0.18818645  0.27180202  0.18868018  1
  H  H10  1  0.16883756  0.38048612  0.26718585  1
  H  H11  1  0.26232669  0.37865270  0.16677956  1
  H  H12  1  0.26424939  0.69971828  0.81048533  1
  H  H13  1  0.37762198  0.68319049  0.73767090  1
  H  H14  1  0.36883818  0.77679206  0.83794311  1
  H  H15  1  0.36212163  0.86966981  0.67042941  1
  H  H16  1  0.23409154  0.87524801  0.73629747  1
  H  H17  1  0.06612843  0.79589701  0.60497547  1
  H  H18  1  0.06921545  0.72507337  0.38600338  1
  H  H19  1  0.36948205  0.64470990  0.33108569  1
  H  H20  1  0.24347172  0.63661229  0.26219052  1
  H  H21  1  0.26916127  0.81499931  0.19043293  1
  H  H22  1  0.38026934  0.83371644  0.26602039  1
  H  H23  1  0.37664322  0.74190598  0.16455542  1
  H  H24  1  0.72746842  0.18836336  0.18749556  1
  H  H25  1  0.61942960  0.16812983  0.26766168  1
  H  H26  1  0.61833332  0.26076439  0.16752001  1
  H  H27  1  0.63173315  0.35862731  0.33229574  1
  H  H28  1  0.75709593  0.36465639  0.26167692  1
  H  H29  1  0.93120040  0.27493839  0.38500770  1
  H  H30  1  0.93385378  0.20424817  0.60367814  1
  H  H31  1  0.63796380  0.13166115  0.66858635  1
  H  H32  1  0.76535534  0.12717096  0.73545604  1
  H  H33  1  0.73320859  0.30172287  0.81110564  1
  H  H34  1  0.62184291  0.31933880  0.73542177  1
  H  H35  1  0.62750772  0.22561257  0.83519661  1
  H  H36  1  0.81285862  0.72618263  0.18832102  1
  H  H37  1  0.83218828  0.61828392  0.26735427  1
  H  H38  1  0.73877948  0.61927129  0.16692506  1
  H  H39  1  0.64042304  0.63229668  0.33207028  1
  H  H40  1  0.63491010  0.75688249  0.26225617  1
  H  H41  1  0.72609954  0.92834252  0.38596023  1
  H  H42  1  0.79696835  0.93070278  0.60498319  1
  H  H43  1  0.86946647  0.63698387  0.66976965  1
  H  H44  1  0.87406347  0.76340434  0.73668482  1
  H  H45  1  0.69741122  0.73329501  0.81085379  1
  H  H46  1  0.68003477  0.62232782  0.73573768  1
  H  H47  1  0.77389137  0.62823241  0.83628396  1
  Pb  Pb48  1  0.99636375  0.99211340  0.01393336  1
  Pb  Pb49  1  0.00167442  0.49234442  0.01172670  1
  Pb  Pb50  1  0.50470911  0.99582958  0.01133603  1
  Pb  Pb51  1  0.49500159  0.49686201  0.97670630  1
  C  C52  1  0.17614495  0.28865375  0.68949487  1
  C  C53  1  0.21902678  0.23922538  0.58721325  1
  C  C54  1  0.22582110  0.13560010  0.55261393  1
  C  C55  1  0.26110183  0.13758927  0.43915484  1
  C  C56  1  0.27348176  0.24229627  0.41118213  1
  C  C57  1  0.31390881  0.29576446  0.31017381  1
  C  C58  1  0.28998707  0.82341359  0.69043660  1
  C  C59  1  0.23975234  0.78177270  0.58808739  1
  C  C60  1  0.13517000  0.77487335  0.55409403  1
  C  C61  1  0.13705039  0.74020824  0.44043313  1
  C  C62  1  0.24268300  0.72842174  0.41164674  1
  C  C63  1  0.29667010  0.68938559  0.30983074  1
  C  C64  1  0.70357460  0.31279500  0.30984556  1
  C  C65  1  0.75775626  0.27316032  0.41102183  1
  C  C66  1  0.86328090  0.26048526  0.43953755  1
  C  C67  1  0.86493621  0.22599923  0.55312481  1
  C  C68  1  0.76029915  0.22006362  0.58728920  1
  C  C69  1  0.70952899  0.17853424  0.68926099  1
  C  C70  1  0.68697909  0.70321101  0.31015116  1
  C  C71  1  0.72725943  0.75640683  0.41166318  1
  C  C72  1  0.74044118  0.86096872  0.44043738  1
  C  C73  1  0.77517672  0.86245834  0.55407351  1
  C  C74  1  0.78084401  0.75869945  0.58800929  1
  C  C75  1  0.82227002  0.70828492  0.69019542  1
  I  I76  1  0.25503004  0.93051878  0.00145112  1
  I  I77  1  0.24993529  0.56772364  0.00406441  1
  I  I78  1  0.75164282  0.08214687  0.99938112  1
  I  I79  1  0.74681110  0.44204638  0.99451704  1
  I  I80  1  0.07683736  0.25066159  0.99911012  1
  I  I81  1  0.92388777  0.74627386  1.00163542  1
  I  I82  1  0.43924921  0.24935356  0.99728813  1
  I  I83  1  0.56079506  0.74511094  0.00069378  1
  I  I84  1  0.00053565  0.00045058  0.74174527  1
  I  I85  1  -0.00019468  0.00049979  0.27313066  1
  I  I86  1  0.01277212  0.50931787  0.75449381  1
  I  I87  1  0.00095328  0.49906341  0.29052945  1
  I  I88  1  0.50509820  0.99553351  0.75380298  1
  I  I89  1  0.50209981  -0.00058015  0.28981453  1
  I  I90  1  0.49840894  0.49972666  0.69376959  1
  I  I91  1  0.49967913  0.49886800  0.23244537  1
  N  N92  1  0.25980516  0.32853312  0.77169494  1
  N  N93  1  0.22811617  0.33324125  0.22961985  1
  N  N94  1  0.32727591  0.73981465  0.77341597  1
  N  N95  1  0.33216281  0.77519336  0.22917351  1
  N  N96  1  0.66560536  0.22739633  0.22965806  1
  N  N97  1  0.67092975  0.26218787  0.77186875  1
  N  N98  1  0.77286406  0.66510033  0.22973724  1
  N  N99  1  0.73747471  0.67099615  0.77240048  1
  O  O100  1  0.24794781  0.30672205  0.50121455  1
  O  O101  1  0.30767893  0.75358971  0.50141653  1
  O  O102  1  0.69260663  0.24870466  0.50088104  1
  O  O103  1  0.75172060  0.69165977  0.50141280  1
