# generated using pymatgen
data_H13PbC6I4N3
_symmetry_space_group_name_H-M   'P 1'
_cell_length_a   12.56864824
_cell_length_b   12.56858607
_cell_length_c   11.79590770
_cell_angle_alpha   89.99362661
_cell_angle_beta   90.01655834
_cell_angle_gamma   89.99885237
_symmetry_Int_Tables_number   1
_chemical_formula_structural   H13PbC6I4N3
_chemical_formula_sum   'H52 Pb4 C24 I16 N12'
_cell_volume   1863.40106939
_cell_formula_units_Z   4
loop_
 _symmetry_equiv_pos_site_id
 _symmetry_equiv_pos_as_xyz
  1  'x, y, z'
loop_
 _atom_site_type_symbol
 _atom_site_label
 _atom_site_symmetry_multiplicity
 _atom_site_fract_x
 _atom_site_fract_y
 _atom_site_fract_z
 _atom_site_occupancy
  H  H0  1  0.24678433  0.20984048  0.87204673  1
  H  H1  1  0.15905446  0.25891516  0.77845131  1
  H  H2  1  0.26502131  0.33084157  0.81503107  1
  H  H3  1  0.28357890  0.11615405  0.70911035  1
  H  H4  1  0.38558171  0.21095205  0.72747602  1
  H  H5  1  0.28119866  0.42136442  0.61011955  1
  H  H6  1  0.21985576  0.42109092  0.38958566  1
  H  H7  1  0.12096673  0.21166725  0.26872408  1
  H  H8  1  0.22127340  0.11561363  0.29053631  1
  H  H9  1  0.24605059  0.32984663  0.18452636  1
  H  H10  1  0.34965688  0.25563391  0.22361219  1
  H  H11  1  0.26283663  0.20860299  0.12807193  1
  H  H12  1  0.25426642  0.10283332  0.49934186  1
  H  H13  1  0.20941567  0.75339618  0.87194064  1
  H  H14  1  0.25841031  0.84112928  0.77837512  1
  H  H15  1  0.33053481  0.73536597  0.81520502  1
  H  H16  1  0.11603922  0.71616936  0.70886329  1
  H  H17  1  0.21105812  0.61443903  0.72746048  1
  H  H18  1  0.42132444  0.71880581  0.61011451  1
  H  H19  1  0.42099555  0.78022717  0.38961479  1
  H  H20  1  0.21157178  0.87912334  0.26875799  1
  H  H21  1  0.11540616  0.77898256  0.29070723  1
  H  H22  1  0.32942951  0.75380476  0.18441627  1
  H  H23  1  0.25505529  0.65034276  0.22362331  1
  H  H24  1  0.20808583  0.73723817  0.12811961  1
  H  H25  1  0.10279541  0.74566264  0.49926742  1
  H  H26  1  0.79086590  0.26280600  0.12815228  1
  H  H27  1  0.74384356  0.34950763  0.22383752  1
  H  H28  1  0.66977770  0.24576046  0.18488947  1
  H  H29  1  0.88425983  0.22138286  0.29045484  1
  H  H30  1  0.78834969  0.12088745  0.26881369  1
  H  H31  1  0.57892191  0.21974272  0.38961883  1
  H  H32  1  0.57862814  0.28114507  0.61010486  1
  H  H33  1  0.78901253  0.38550893  0.72749017  1
  H  H34  1  0.88371048  0.28337120  0.70937423  1
  H  H35  1  0.66883436  0.26522231  0.81486164  1
  H  H36  1  0.74051464  0.15907711  0.77844575  1
  H  H37  1  0.78971557  0.24663533  0.87212597  1
  H  H38  1  0.89716014  0.25423352  0.49943455  1
  H  H39  1  0.73728614  0.79130857  0.12813915  1
  H  H40  1  0.65056020  0.74426799  0.22378824  1
  H  H41  1  0.75421107  0.67012270  0.18468620  1
  H  H42  1  0.77888305  0.88440045  0.29054667  1
  H  H43  1  0.87924095  0.78839642  0.26878587  1
  H  H44  1  0.78040767  0.57895155  0.38966553  1
  H  H45  1  0.71893458  0.57867548  0.61011570  1
  H  H46  1  0.61455373  0.78897538  0.72739370  1
  H  H47  1  0.71641060  0.88388947  0.70900853  1
  H  H48  1  0.73520809  0.66923814  0.81501509  1
  H  H49  1  0.84113857  0.74110334  0.77831874  1
  H  H50  1  0.75357550  0.79026206  0.87195042  1
  H  H51  1  0.74572402  0.89718902  0.49924014  1
  Pb  Pb52  1  0.00042405  0.00020327  0.99245461  1
  Pb  Pb53  1  0.00039918  0.49982269  0.00216642  1
  Pb  Pb54  1  0.50044942  0.99964538  0.00220325  1
  Pb  Pb55  1  0.50062535  0.49994492  0.00956379  1
  C  C56  1  0.30140025  0.20147464  0.70437169  1
  C  C57  1  0.27443319  0.24690640  0.59195669  1
  C  C58  1  0.26562396  0.35215377  0.55767376  1
  C  C59  1  0.23571530  0.35200043  0.44206834  1
  C  C60  1  0.22901462  0.24668942  0.40739774  1
  C  C61  1  0.20439347  0.20115952  0.29439690  1
  C  C62  1  0.20140267  0.69858008  0.70429173  1
  C  C63  1  0.24686729  0.72556050  0.59193577  1
  C  C64  1  0.35210881  0.73439314  0.55767382  1
  C  C65  1  0.35192045  0.76435526  0.44207420  1
  C  C66  1  0.24660297  0.77106892  0.40739404  1
  C  C67  1  0.20097159  0.79572297  0.29444632  1
  C  C68  1  0.79876445  0.20433110  0.29445533  1
  C  C69  1  0.75331332  0.22888190  0.40748918  1
  C  C70  1  0.64800715  0.23559637  0.44212107  1
  C  C71  1  0.64783593  0.26553508  0.55769583  1
  C  C72  1  0.75307643  0.27436385  0.59200343  1
  C  C73  1  0.79842898  0.30130379  0.70446002  1
  C  C74  1  0.79582382  0.79888613  0.29443618  1
  C  C75  1  0.77124623  0.75335132  0.40743304  1
  C  C76  1  0.76453856  0.64803618  0.44211726  1
  C  C77  1  0.73454477  0.64787566  0.55767896  1
  C  C78  1  0.72567955  0.75313092  0.59191957  1
  C  C79  1  0.69871307  0.79855558  0.70429608  1
  I  I80  1  0.24949591  0.04520194  -0.00072316  1
  I  I81  1  0.24969199  0.46527427  1.00184150  1
  I  I82  1  0.75122406  0.95463911  -0.00084087  1
  I  I83  1  0.75117862  0.53529981  1.00176895  1
  I  I84  1  0.95423944  0.24918705  -0.00059059  1
  I  I85  1  0.04488615  0.75089438  -0.00095653  1
  I  I86  1  0.53429734  0.24905870  1.00189706  1
  I  I87  1  0.46436146  0.75054520  1.00188840  1
  I  I88  1  0.00075252  0.00091109  0.71979212  1
  I  I89  1  0.00003282  0.00009297  0.26486734  1
  I  I90  1  0.00025619  0.49962008  0.73263432  1
  I  I91  1  0.99990042  0.49996782  0.27187327  1
  I  I92  1  0.50022389  0.00009046  0.73272031  1
  I  I93  1  0.50089058  0.99976701  0.27201685  1
  I  I94  1  0.50079351  0.49975413  0.73994013  1
  I  I95  1  0.50048160  0.49997400  0.27603700  1
  N  N96  1  0.23887063  0.25439551  0.79781592  1
  N  N97  1  0.27012178  0.25280093  0.20255288  1
  N  N98  1  0.25231763  0.18357875  0.49965825  1
  N  N99  1  0.25405058  0.76131804  0.79777678  1
  N  N100  1  0.25236403  0.72987923  0.20255877  1
  N  N101  1  0.18350296  0.74772602  0.49963542  1
  N  N102  1  0.74680746  0.26998965  0.20272426  1
  N  N103  1  0.74523901  0.23887609  0.79781658  1
  N  N104  1  0.81643283  0.25221480  0.49974231  1
  N  N105  1  0.73007097  0.74715574  0.20265864  1
  N  N106  1  0.76134910  0.74567951  0.79772613  1
  N  N107  1  0.74786264  0.81647649  0.49963613  1
