# generated using pymatgen
data_H8PbC4S(I2N)2
_symmetry_space_group_name_H-M   'P 1'
_cell_length_a   12.36988360
_cell_length_b   12.09076927
_cell_length_c   10.49659873
_cell_angle_alpha   94.26395793
_cell_angle_beta   94.22510726
_cell_angle_gamma   90.82985196
_symmetry_Int_Tables_number   1
_chemical_formula_structural   H8PbC4S(I2N)2
_chemical_formula_sum   'H32 Pb4 C16 S4 I16 N8'
_cell_volume   1560.97160975
_cell_formula_units_Z   4
loop_
 _symmetry_equiv_pos_site_id
 _symmetry_equiv_pos_as_xyz
  1  'x, y, z'
loop_
 _atom_site_type_symbol
 _atom_site_label
 _atom_site_symmetry_multiplicity
 _atom_site_fract_x
 _atom_site_fract_y
 _atom_site_fract_z
 _atom_site_occupancy
  H  H0  1  0.22194933  0.20290718  0.82463417  1
  H  H1  1  0.17086840  0.30711539  0.74255090  1
  H  H2  1  0.12373176  0.17440754  0.70955065  1
  H  H3  1  0.28655979  0.10985403  0.63160260  1
  H  H4  1  0.35318127  0.23840042  0.68171283  1
  H  H5  1  0.26469299  0.09216969  0.37621315  1
  H  H6  1  0.23212654  0.21124591  0.19885807  1
  H  H7  1  0.21632150  0.42154030  0.56194283  1
  H  H8  1  0.22683893  0.79717243  0.82315293  1
  H  H9  1  0.32012825  0.84492897  0.72850640  1
  H  H10  1  0.18878918  0.88352830  0.71146028  1
  H  H11  1  0.12208177  0.70634668  0.63555017  1
  H  H12  1  0.24922770  0.64665651  0.67687239  1
  H  H13  1  0.09324024  0.77914908  0.39451290  1
  H  H14  1  0.19921812  0.78119752  0.20562661  1
  H  H15  1  0.42150715  0.69642959  0.53432200  1
  H  H16  1  0.81434937  0.28545724  0.18852951  1
  H  H17  1  0.70395995  0.33148138  0.25720135  1
  H  H18  1  0.82850633  0.38326141  0.30901603  1
  H  H19  1  0.88512032  0.20009862  0.37225402  1
  H  H20  1  0.75433262  0.14635540  0.31821757  1
  H  H21  1  0.91063643  0.22135891  0.62087361  1
  H  H22  1  0.80396582  0.25811586  0.80714377  1
  H  H23  1  0.58506262  0.28612429  0.45619649  1
  H  H24  1  0.72537663  0.78333087  0.17090463  1
  H  H25  1  0.67171481  0.68733846  0.25858602  1
  H  H26  1  0.63135664  0.82168458  0.27040128  1
  H  H27  1  0.79277398  0.89184882  0.37186466  1
  H  H28  1  0.85999210  0.76541575  0.33531449  1
  H  H29  1  0.72067402  0.91233627  0.61234693  1
  H  H30  1  0.69966219  0.79396245  0.78873709  1
  H  H31  1  0.78116701  0.57813719  0.44978283  1
  Pb  Pb32  1  0.99409370  0.98939423  0.99203589  1
  Pb  Pb33  1  0.98478429  0.50859867  0.99217860  1
  Pb  Pb34  1  0.50045168  0.00509947  0.00827539  1
  Pb  Pb35  1  0.47981773  0.48856439  -0.00043585  1
  C  C36  1  0.27632759  0.19998596  0.63966487  1
  C  C37  1  0.24789807  0.24292655  0.51154378  1
  C  C38  1  0.25112199  0.18050607  0.39372246  1
  C  C39  1  0.22442677  0.35280307  0.49057333  1
  C  C40  1  0.21016863  0.71928097  0.63796659  1
  C  C41  1  0.24625670  0.73542892  0.50737853  1
  C  C42  1  0.17979001  0.76375026  0.40095868  1
  C  C43  1  0.35201334  0.72015265  0.47340250  1
  C  C44  1  0.79864569  0.21971503  0.36528478  1
  C  C45  1  0.75961325  0.24701591  0.49554148  1
  C  C46  1  0.82480805  0.23945388  0.60983080  1
  C  C47  1  0.65455276  0.27484678  0.52337162  1
  C  C48  1  0.78398744  0.80124714  0.36527446  1
  C  C49  1  0.75688711  0.75889183  0.48980586  1
  C  C50  1  0.72935308  0.82288671  0.59923618  1
  C  C51  1  0.75938703  0.64730956  0.51447430  1
  S  S52  1  0.20901450  0.37546392  0.33394943  1
  S  S53  1  0.36623042  0.73921023  0.31840246  1
  S  S54  1  0.63928891  0.29014053  0.68236892  1
  S  S55  1  0.72999521  0.62523785  0.66427446  1
  I  I56  1  0.24926265  0.06924137  0.00869457  1
  I  I57  1  0.23463976  0.41914562  0.02152227  1
  I  I58  1  0.74589280  0.91891892  0.98802719  1
  I  I59  1  0.73501847  0.56440887  0.97864411  1
  I  I60  1  0.93237572  0.24778801  0.00184458  1
  I  I61  1  0.09431037  0.74836894  0.99166882  1
  I  I62  1  0.59051559  0.24921183  0.00591162  1
  I  I63  1  0.43586658  0.74580589  0.99508518  1
  I  I64  1  0.01609592  0.99271932  0.66972447  1
  I  I65  1  0.01249021  0.00188773  0.28573497  1
  I  I66  1  0.00934922  0.46977907  0.69302373  1
  I  I67  1  0.97029684  0.54148600  0.30441435  1
  I  I68  1  0.47904877  0.97216770  0.70016610  1
  I  I69  1  0.54109689  0.00928508  0.31778837  1
  I  I70  1  0.43891473  0.47903542  0.69390277  1
  I  I71  1  0.55025520  0.51083704  0.30820367  1
  N  N72  1  0.19309032  0.22452670  0.73400132  1
  N  N73  1  0.23488128  0.24243310  0.29397632  1
  N  N74  1  0.23950299  0.81727078  0.73059852  1
  N  N75  1  0.23487781  0.77019017  0.29667388  1
  N  N76  1  0.78427708  0.31082758  0.27652848  1
  N  N77  1  0.76932188  0.25648097  0.71354207  1
  N  N78  1  0.69779828  0.76984577  0.25994394  1
  N  N79  1  0.71279376  0.76106964  0.69686004  1
