# generated using pymatgen
data_H18PbC13(I2N)2
_symmetry_space_group_name_H-M   'P 1'
_cell_length_a   12.24865371
_cell_length_b   12.21270509
_cell_length_c   15.30787608
_cell_angle_alpha   89.12349612
_cell_angle_beta   89.24120053
_cell_angle_gamma   87.92816878
_symmetry_Int_Tables_number   1
_chemical_formula_structural   H18PbC13(I2N)2
_chemical_formula_sum   'H72 Pb4 C52 I16 N8'
_cell_volume   2287.94364029
_cell_formula_units_Z   4
loop_
 _symmetry_equiv_pos_site_id
 _symmetry_equiv_pos_as_xyz
  1  'x, y, z'
loop_
 _atom_site_type_symbol
 _atom_site_label
 _atom_site_symmetry_multiplicity
 _atom_site_fract_x
 _atom_site_fract_y
 _atom_site_fract_z
 _atom_site_occupancy
  H  H0  1  0.34836266  0.01254327  0.61059568  1
  H  H1  1  0.30502070  0.05727051  0.71453996  1
  H  H2  1  0.20688956  0.01962303  0.63754159  1
  H  H3  1  0.36976535  0.18679012  0.77272283  1
  H  H4  1  0.35393762  0.33038728  0.78020307  1
  H  H5  1  0.17239660  0.17522450  0.80434318  1
  H  H6  1  0.23961891  0.24017578  0.88142425  1
  H  H7  1  0.16005768  0.31207676  0.81098054  1
  H  H8  1  0.29213910  0.44472760  0.66833978  1
  H  H9  1  0.25497638  0.47672603  0.51129239  1
  H  H10  1  0.21529470  0.40256715  0.36611719  1
  H  H11  1  0.13061614  0.17973969  0.22196141  1
  H  H12  1  0.13104212  0.32452171  0.23530796  1
  H  H13  1  0.24614053  0.26319671  0.11907328  1
  H  H14  1  0.32435267  0.18431462  0.18393367  1
  H  H15  1  0.32372035  0.32003776  0.19483333  1
  H  H16  1  0.20743982  0.05357964  0.33121336  1
  H  H17  1  0.24763073  0.02108895  0.48599352  1
  H  H18  1  0.02145571  0.65625974  0.60335005  1
  H  H19  1  0.05834381  0.70179380  0.70690088  1
  H  H20  1  0.01666593  0.79857039  0.62582425  1
  H  H21  1  0.18607389  0.63350411  0.76808819  1
  H  H22  1  0.32922313  0.63847870  0.77759523  1
  H  H23  1  0.17533837  0.83265466  0.79928932  1
  H  H24  1  0.23555231  0.75399717  0.87783713  1
  H  H25  1  0.31022904  0.83053158  0.81167883  1
  H  H26  1  0.44543508  0.71006031  0.67071258  1
  H  H27  1  0.48098960  0.75351841  0.51462234  1
  H  H28  1  0.41073239  0.79081670  0.36637109  1
  H  H29  1  0.19559363  0.86887399  0.20987829  1
  H  H30  1  0.33931862  0.85449776  0.22581953  1
  H  H31  1  0.26996265  0.72998892  0.11805016  1
  H  H32  1  0.19306171  0.66774732  0.19331676  1
  H  H33  1  0.32909864  0.65991818  0.19993075  1
  H  H34  1  0.06455503  0.79344959  0.32022748  1
  H  H35  1  0.02800481  0.75806086  0.47563127  1
  H  H36  1  0.98095177  0.16048454  0.39036902  1
  H  H37  1  0.93501958  0.20552333  0.28743208  1
  H  H38  1  0.97197348  0.30240303  0.36595547  1
  H  H39  1  0.80896214  0.13389213  0.23221445  1
  H  H40  1  0.66521084  0.14247143  0.22552463  1
  H  H41  1  0.81322185  0.32820195  0.19581299  1
  H  H42  1  0.74675886  0.25858893  0.12192000  1
  H  H43  1  0.67680729  0.33910013  0.19330423  1
  H  H44  1  0.54912687  0.20936059  0.33639868  1
  H  H45  1  0.51847947  0.25141480  0.49276971  1
  H  H46  1  0.59403785  0.29028720  0.63802393  1
  H  H47  1  0.81484275  0.37197883  0.78293565  1
  H  H48  1  0.67121204  0.35715723  0.77455761  1
  H  H49  1  0.75667857  0.23384189  0.88222507  1
  H  H50  1  0.83125078  0.17012575  0.80519216  1
  H  H51  1  0.69475239  0.16412008  0.80539710  1
  H  H52  1  0.94262083  0.29476341  0.67124875  1
  H  H53  1  0.97304300  0.25780127  0.51577550  1
  H  H54  1  0.84948318  0.97171475  0.39087837  1
  H  H55  1  0.79650084  0.93683640  0.28904064  1
  H  H56  1  0.70639483  0.97774040  0.37438534  1
  H  H57  1  0.86285666  0.80897070  0.22628520  1
  H  H58  1  0.86441802  0.66510768  0.21912406  1
  H  H59  1  0.66571764  0.81335293  0.19466718  1
  H  H60  1  0.74409742  0.75079751  0.11762571  1
  H  H61  1  0.66998540  0.67662495  0.18712498  1
  H  H62  1  0.79112606  0.54728252  0.32741791  1
  H  H63  1  0.74960890  0.51324959  0.48395708  1
  H  H64  1  0.70819574  0.58605188  0.63150307  1
  H  H65  1  0.62081415  0.80648426  0.77951719  1
  H  H66  1  0.63885260  0.66176974  0.76920198  1
  H  H67  1  0.74537718  0.73697644  0.88247218  1
  H  H68  1  0.81571752  0.81382187  0.81207172  1
  H  H69  1  0.82845463  0.67775868  0.80814097  1
  H  H70  1  0.71275863  0.93390369  0.67436546  1
  H  H71  1  0.75211937  0.96760856  0.51940973  1
  Pb  Pb72  1  0.00633693  0.99553473  0.99575296  1
  Pb  Pb73  1  0.01564853  0.50374064  0.00635876  1
  Pb  Pb74  1  0.51922927  1.00241808  0.00203350  1
  Pb  Pb75  1  0.50209196  0.48999271  -0.00320445  1
  C  C76  1  0.28439800  0.06106252  0.64514310  1
  C  C77  1  0.27616676  0.17669422  0.60967136  1
  C  C78  1  0.28779387  0.26770355  0.66230754  1
  C  C79  1  0.31412295  0.25688373  0.75795051  1
  C  C80  1  0.27999373  0.37554860  0.62572281  1
  C  C81  1  0.26016496  0.39352387  0.53842146  1
  C  C82  1  0.24712013  0.30339930  0.48245013  1
  C  C83  1  0.22458893  0.31902350  0.39232055  1
  C  C84  1  0.21102167  0.23071265  0.33839523  1
  C  C85  1  0.17880825  0.24754344  0.24491313  1
  C  C86  1  0.22071229  0.12280428  0.37359402  1
  C  C87  1  0.24226907  0.10498426  0.46088334  1
  C  C88  1  0.25559675  0.19391351  0.51829272  1
  C  C89  1  0.06356599  0.72123720  0.63698218  1
  C  C90  1  0.17951524  0.72942599  0.60444027  1
  C  C91  1  0.26900845  0.71517665  0.65940492  1
  C  C92  1  0.25631041  0.68458353  0.75429218  1
  C  C93  1  0.37737821  0.72457462  0.62619588  1
  C  C94  1  0.39741760  0.74756753  0.53942151  1
  C  C95  1  0.30902980  0.76099499  0.48072071  1
  C  C96  1  0.32700397  0.78214739  0.39032745  1
  C  C97  1  0.24090288  0.79275089  0.33290130  1
  C  C98  1  0.26102924  0.81551728  0.23745032  1
  C  C99  1  0.13245762  0.78353115  0.36535145  1
  C  C100  1  0.11224172  0.76419098  0.45288402  1
  C  C101  1  0.19910762  0.75175784  0.51340114  1
  C  C102  1  0.93109001  0.22473889  0.35705017  1
  C  C103  1  0.81646952  0.23069745  0.39328881  1
  C  C104  1  0.72554819  0.21580678  0.34161887  1
  C  C105  1  0.73656580  0.18641776  0.24682691  1
  C  C106  1  0.61835737  0.22324758  0.37845581  1
  C  C107  1  0.60120317  0.24557658  0.46544503  1
  C  C108  1  0.69150481  0.25998389  0.52087615  1
  C  C109  1  0.67701648  0.28206679  0.61122839  1
  C  C110  1  0.76584182  0.29392904  0.66484924  1
  C  C111  1  0.75142193  0.31816132  0.76025964  1
  C  C112  1  0.87297715  0.28411455  0.62886674  1
  C  C113  1  0.88970851  0.26398270  0.54136856  1
  C  C114  1  0.80025407  0.25157082  0.48453515  1
  C  C115  1  0.78223419  0.93048221  0.35950931  1
  C  C116  1  0.77500725  0.81425902  0.39181460  1
  C  C117  1  0.78693663  0.72440669  0.33690976  1
  C  C118  1  0.81516430  0.73652965  0.24127726  1
  C  C119  1  0.77817201  0.61613601  0.37145410  1
  C  C120  1  0.75631643  0.59676314  0.45856379  1
  C  C121  1  0.74380834  0.68587548  0.51679421  1
  C  C122  1  0.72004147  0.66938256  0.60700617  1
  C  C123  1  0.70900511  0.75701713  0.66309369  1
  C  C124  1  0.67736204  0.74046956  0.75714453  1
  C  C125  1  0.72280736  0.86492043  0.63015583  1
  C  C126  1  0.74432050  0.88355947  0.54283436  1
  C  C127  1  0.75470210  0.79548184  0.48323328  1
  I  I128  1  0.26237002  0.95505233  0.98798535  1
  I  I129  1  0.25510719  0.58691163  0.98440812  1
  I  I130  1  0.75772167  0.09011705  0.01923987  1
  I  I131  1  0.75885224  0.45590940  0.00347009  1
  I  I132  1  0.06094559  0.25124626  0.02291693  1
  I  I133  1  0.92040934  0.75525845  0.00529186  1
  I  I134  1  0.41984238  0.25021123  0.99008544  1
  I  I135  1  0.55638951  0.74771278  0.98310105  1
  I  I136  1  0.99643470  1.00015176  0.77806709  1
  I  I137  1  0.00689606  0.98987246  0.19747166  1
  I  I138  1  0.01923653  0.47684970  0.79742910  1
  I  I139  1  0.04541848  0.52776561  0.21621017  1
  I  I140  1  0.54531195  0.02970664  0.79414255  1
  I  I141  1  0.52060331  0.97289617  0.21377249  1
  I  I142  1  0.50165392  0.49378451  0.79177293  1
  I  I143  1  0.48757809  0.47852266  0.21553653  1
  N  N144  1  0.21496552  0.24479255  0.81670800  1
  N  N145  1  0.27475467  0.25430703  0.18269574  1
  N  N146  1  0.24301917  0.78223291  0.81335336  1
  N  N147  1  0.26378043  0.71270538  0.18440734  1
  N  N148  1  0.74382418  0.28500914  0.18652097  1
  N  N149  1  0.75960301  0.21599358  0.81621277  1
  N  N150  1  0.71710237  0.74481421  0.18221956  1
  N  N151  1  0.77322331  0.74239905  0.81795374  1
