# generated using pymatgen
data_H12PbC8S2(I2N)2
_symmetry_space_group_name_H-M   'P 1'
_cell_length_a   12.30655697
_cell_length_b   12.09463612
_cell_length_c   14.73509557
_cell_angle_alpha   91.21603026
_cell_angle_beta   88.90032604
_cell_angle_gamma   88.94805457
_symmetry_Int_Tables_number   1
_chemical_formula_structural   H12PbC8S2(I2N)2
_chemical_formula_sum   'H48 Pb4 C32 S8 I16 N8'
_cell_volume   2191.93648489
_cell_formula_units_Z   4
loop_
 _symmetry_equiv_pos_site_id
 _symmetry_equiv_pos_as_xyz
  1  'x, y, z'
loop_
 _atom_site_type_symbol
 _atom_site_label
 _atom_site_symmetry_multiplicity
 _atom_site_fract_x
 _atom_site_fract_y
 _atom_site_fract_z
 _atom_site_occupancy
  H  H0  1  0.26075596  0.25706838  0.87842369  1
  H  H1  1  0.20494568  0.17346273  0.80153068  1
  H  H2  1  0.16786470  0.30908740  0.80602329  1
  H  H3  1  0.34670964  0.36509374  0.76236159  1
  H  H4  1  0.39319811  0.22517070  0.76555988  1
  H  H5  1  0.27362601  0.43662111  0.61068123  1
  H  H6  1  0.10070277  0.27151845  0.23812461  1
  H  H7  1  0.14511130  0.13103590  0.24167291  1
  H  H8  1  0.28547998  0.32085436  0.19485994  1
  H  H9  1  0.22855791  0.23332142  0.12209566  1
  H  H10  1  0.32466539  0.18629954  0.19322661  1
  H  H11  1  0.22464526  0.06035423  0.39069887  1
  H  H12  1  0.25858144  0.74924004  0.87789508  1
  H  H13  1  0.17677839  0.80857192  0.80280502  1
  H  H14  1  0.30905700  0.84075571  0.80358696  1
  H  H15  1  0.36406286  0.65380468  0.76029956  1
  H  H16  1  0.22643458  0.61279638  0.76812483  1
  H  H17  1  0.43507873  0.72968232  0.60626740  1
  H  H18  1  0.27340174  0.89529590  0.23488079  1
  H  H19  1  0.13645488  0.85113817  0.24160619  1
  H  H20  1  0.32706250  0.70317619  0.19409526  1
  H  H21  1  0.24293001  0.76257175  0.12153265  1
  H  H22  1  0.19598815  0.66679976  0.19421001  1
  H  H23  1  0.06648345  0.77228818  0.39378009  1
  H  H24  1  0.74167469  0.24205466  0.11951829  1
  H  H25  1  0.82896211  0.29590155  0.19190739  1
  H  H26  1  0.69880076  0.34074982  0.19610085  1
  H  H27  1  0.63681694  0.15825617  0.23741083  1
  H  H28  1  0.77364139  0.10843179  0.22846436  1
  H  H29  1  0.56718170  0.23063284  0.39282252  1
  H  H30  1  0.72973018  0.39733873  0.76788933  1
  H  H31  1  0.86668240  0.34740145  0.75943180  1
  H  H32  1  0.67464899  0.21144529  0.80817022  1
  H  H33  1  0.76215056  0.26799463  0.87953826  1
  H  H34  1  0.80413794  0.16671929  0.80545360  1
  H  H35  1  0.93553660  0.27132517  0.60557716  1
  H  H36  1  0.75997621  0.73886920  0.12126042  1
  H  H37  1  0.70044222  0.82235810  0.19942866  1
  H  H38  1  0.66918961  0.68708923  0.19577350  1
  H  H39  1  0.84958461  0.63121121  0.23506256  1
  H  H40  1  0.89104587  0.77110554  0.22972727  1
  H  H41  1  0.77366993  0.56080428  0.38739433  1
  H  H42  1  0.60494035  0.72555230  0.76886308  1
  H  H43  1  0.64750011  0.86502837  0.76436338  1
  H  H44  1  0.79301745  0.67218335  0.80326396  1
  H  H45  1  0.73361115  0.75781922  0.87952957  1
  H  H46  1  0.82739280  0.80652682  0.80555504  1
  H  H47  1  0.72513336  0.93579250  0.61286635  1
  Pb  Pb48  1  0.98169043  0.98647270  0.99490369  1
  Pb  Pb49  1  0.03756509  0.49607164  0.99808216  1
  Pb  Pb50  1  0.48534479  0.00270256  0.00156238  1
  Pb  Pb51  1  0.52636068  0.49397973  0.00388847  1
  C  C52  1  0.32476432  0.27921871  0.74716573  1
  C  C53  1  0.29543926  0.26550585  0.65020410  1
  C  C54  1  0.27277513  0.34933799  0.59102538  1
  C  C55  1  0.24829932  0.30656277  0.50360349  1
  C  C56  1  0.20228043  0.23140164  0.35127717  1
  C  C57  1  0.16899138  0.21668512  0.25541130  1
  C  C58  1  0.22628592  0.14765954  0.41016372  1
  C  C59  1  0.25202757  0.19046371  0.49725191  1
  C  C60  1  0.27996105  0.67988694  0.74704057  1
  C  C61  1  0.26726574  0.70727992  0.64994866  1
  C  C62  1  0.34956693  0.73001809  0.58859650  1
  C  C63  1  0.30775514  0.75291471  0.50186779  1
  C  C64  1  0.23423777  0.79548935  0.35043555  1
  C  C65  1  0.22112662  0.82642931  0.25416943  1
  C  C66  1  0.15199358  0.77156914  0.41148983  1
  C  C67  1  0.19384895  0.74763880  0.49802901  1
  C  C68  1  0.72161502  0.17946125  0.25021351  1
  C  C69  1  0.73529759  0.20928620  0.34750622  1
  C  C70  1  0.65273387  0.23127902  0.41026875  1
  C  C71  1  0.69432695  0.25290240  0.49779202  1
  C  C72  1  0.76744517  0.29313143  0.65069718  1
  C  C73  1  0.78181688  0.32590769  0.74725150  1
  C  C74  1  0.84999694  0.27011549  0.58813231  1
  C  C75  1  0.80841977  0.24757285  0.50078360  1
  C  C76  1  0.82462652  0.71712920  0.25070609  1
  C  C77  1  0.79491885  0.73143297  0.34859570  1
  C  C78  1  0.77252278  0.64779064  0.40795424  1
  C  C79  1  0.74817294  0.69035596  0.49653110  1
  C  C80  1  0.70388211  0.76502886  0.65147600  1
  C  C81  1  0.67228023  0.77897310  0.74898575  1
  C  C82  1  0.72674568  0.84878269  0.59230446  1
  C  C83  1  0.75161814  0.80628441  0.50375215  1
  S  S84  1  0.21100143  0.36305070  0.40196976  1
  S  S85  1  0.28819501  0.13395084  0.59910957  1
  S  S86  1  0.36294510  0.78957869  0.39853203  1
  S  S87  1  0.13864925  0.71219477  0.60166155  1
  S  S88  1  0.63842384  0.28824251  0.60300812  1
  S  S89  1  0.86422668  0.21319919  0.39537099  1
  S  S90  1  0.71195531  0.63380270  0.59911602  1
  S  S91  1  0.78732260  0.86276684  0.40095516  1
  I  I92  1  0.23387063  0.93607918  0.01480269  1
  I  I93  1  0.27706044  0.58069436  0.98649271  1
  I  I94  1  0.73185979  0.07597913  0.00309415  1
  I  I95  1  0.77738061  0.43536173  0.99312551  1
  I  I96  1  0.05818613  0.23791737  0.01530814  1
  I  I97  1  0.92382014  0.73537063  0.00182861  1
  I  I98  1  0.41730121  0.25738721  0.99275750  1
  I  I99  1  0.56992944  0.75326043  0.99805580  1
  I  I100  1  0.95438642  0.98105912  0.77348831  1
  I  I101  1  0.96048867  0.98932099  0.20938699  1
  I  I102  1  0.04749524  0.47509934  0.77870374  1
  I  I103  1  0.06286371  0.51249253  0.21572490  1
  I  I104  1  0.44907484  0.99208426  0.78412171  1
  I  I105  1  0.46273469  0.01939795  0.21984271  1
  I  I106  1  0.53498614  0.50080682  0.78946675  1
  I  I107  1  0.55327713  0.50517637  0.22608289  1
  N  N108  1  0.23278377  0.25229931  0.81209266  1
  N  N109  1  0.25853669  0.24112438  0.18759231  1
  N  N110  1  0.25392905  0.77625655  0.81131943  1
  N  N111  1  0.24895427  0.73339201  0.18735352  1
  N  N112  1  0.74975348  0.27121791  0.18617986  1
  N  N113  1  0.75385576  0.23640561  0.81347324  1
  N  N114  1  0.73182559  0.74358626  0.18845147  1
  N  N115  1  0.76324567  0.75175881  0.81274824  1
