# generated using pymatgen
data_H12PbC6S(I2N)2
_symmetry_space_group_name_H-M   'P 1'
_cell_length_a   12.79912440
_cell_length_b   12.79171231
_cell_length_c   10.95174211
_cell_angle_alpha   90.13049244
_cell_angle_beta   90.02890237
_cell_angle_gamma   89.98484482
_symmetry_Int_Tables_number   1
_chemical_formula_structural   H12PbC6S(I2N)2
_chemical_formula_sum   'H48 Pb4 C24 S4 I16 N8'
_cell_volume   1793.04403472
_cell_formula_units_Z   4
loop_
 _symmetry_equiv_pos_site_id
 _symmetry_equiv_pos_as_xyz
  1  'x, y, z'
loop_
 _atom_site_type_symbol
 _atom_site_label
 _atom_site_symmetry_multiplicity
 _atom_site_fract_x
 _atom_site_fract_y
 _atom_site_fract_z
 _atom_site_occupancy
  H  H0  1  0.28088148  0.28292721  0.81462285  1
  H  H1  1  0.16027790  0.31930862  0.77494810  1
  H  H2  1  0.24872228  0.40798788  0.81489493  1
  H  H3  1  0.35533996  0.37414962  0.64093620  1
  H  H4  1  0.22727298  0.41480366  0.60022062  1
  H  H5  1  0.28346158  0.12597587  0.70223153  1
  H  H6  1  0.20346951  0.12627684  0.29868977  1
  H  H7  1  0.27011872  0.41353552  0.39823194  1
  H  H8  1  0.13877058  0.37664171  0.36861213  1
  H  H9  1  0.19263506  0.28950749  0.18508585  1
  H  H10  1  0.31959798  0.30972671  0.21723368  1
  H  H11  1  0.23930124  0.40939938  0.18808495  1
  H  H12  1  0.28257845  0.71889851  0.81410824  1
  H  H13  1  0.31970074  0.83945445  0.77525244  1
  H  H14  1  0.40773446  0.75033260  0.81478447  1
  H  H15  1  0.37467054  0.64451004  0.64012652  1
  H  H16  1  0.41477037  0.77286112  0.60008692  1
  H  H17  1  0.12603390  0.71582187  0.70187588  1
  H  H18  1  0.12696718  0.79395741  0.29813683  1
  H  H19  1  0.41424677  0.72978530  0.39789390  1
  H  H20  1  0.37654051  0.86106430  0.36907794  1
  H  H21  1  0.28976511  0.80692491  0.18559671  1
  H  H22  1  0.31080354  0.67999214  0.21682881  1
  H  H23  1  0.40991387  0.76090025  0.18773650  1
  H  H24  1  0.70944184  0.19177015  0.18428357  1
  H  H25  1  0.69087912  0.31904856  0.21699167  1
  H  H26  1  0.59012154  0.24000739  0.18806127  1
  H  H27  1  0.62422527  0.13838258  0.36817896  1
  H  H28  1  0.58617694  0.26941821  0.39771423  1
  H  H29  1  0.87350397  0.20614910  0.29838103  1
  H  H30  1  0.87393308  0.28420159  0.70266025  1
  H  H31  1  0.58566608  0.22587469  0.60041577  1
  H  H32  1  0.62507919  0.35451698  0.64091303  1
  H  H33  1  0.71737542  0.28172569  0.81474227  1
  H  H34  1  0.68252312  0.16046663  0.77566349  1
  H  H35  1  0.59277354  0.24815851  0.81498040  1
  H  H36  1  0.80759206  0.70928242  0.18478686  1
  H  H37  1  0.68057017  0.68970664  0.21674752  1
  H  H38  1  0.76034600  0.58949952  0.18765355  1
  H  H39  1  0.86156946  0.62427177  0.36851652  1
  H  H40  1  0.73087151  0.58522807  0.39740405  1
  H  H41  1  0.79137644  0.87294634  0.29798942  1
  H  H42  1  0.71444951  0.87400623  0.70222645  1
  H  H43  1  0.77395869  0.58544118  0.60034601  1
  H  H44  1  0.64523473  0.62457185  0.64030668  1
  H  H45  1  0.71803568  0.71782041  0.81424752  1
  H  H46  1  0.83907008  0.68212398  0.77581638  1
  H  H47  1  0.75090735  0.59294938  0.81499130  1
  Pb  Pb48  1  0.01535348  0.00763115  0.98432940  1
  Pb  Pb49  1  0.99987877  0.50801789  0.99217287  1
  Pb  Pb50  1  0.50733626  0.00097955  0.99298695  1
  Pb  Pb51  1  0.50101623  0.49913367  0.02452958  1
  C  C52  1  0.27310844  0.34943460  0.63694790  1
  C  C53  1  0.25796725  0.25119170  0.56439028  1
  C  C54  1  0.26470071  0.15114422  0.61011082  1
  C  C55  1  0.22572637  0.15129377  0.39002022  1
  C  C56  1  0.23641657  0.25114814  0.43571553  1
  C  C57  1  0.22040673  0.34957071  0.36503133  1
  C  C58  1  0.34961610  0.72669605  0.63663459  1
  C  C59  1  0.25145652  0.74136827  0.56418525  1
  C  C60  1  0.15137480  0.73404461  0.60969925  1
  C  C61  1  0.15191126  0.77198236  0.38948526  1
  C  C62  1  0.25164007  0.76245152  0.43550778  1
  C  C63  1  0.35004152  0.77921890  0.36502686  1
  C  C64  1  0.65059293  0.22025474  0.36465929  1
  C  C65  1  0.74880209  0.23723893  0.43563149  1
  C  C66  1  0.84860188  0.22791504  0.38988153  1
  C  C67  1  0.84877113  0.26592713  0.61029391  1
  C  C68  1  0.74877070  0.25829867  0.56447693  1
  C  C69  1  0.65061412  0.27246802  0.63706036  1
  C  C70  1  0.77953137  0.65001725  0.36465074  1
  C  C71  1  0.76164825  0.74828524  0.43547095  1
  C  C72  1  0.76981672  0.84806870  0.38945274  1
  C  C73  1  0.73242423  0.84861840  0.60987984  1
  C  C74  1  0.74083145  0.74848584  0.56427780  1
  C  C75  1  0.72715548  0.65034366  0.63681509  1
  S  S76  1  0.24229979  0.05896077  0.50046172  1
  S  S77  1  0.05941955  0.75507476  0.49973160  1
  S  S78  1  0.94091228  0.24512396  0.50048179  1
  S  S79  1  0.75198803  0.94062422  0.49982011  1
  I  I80  1  0.25660228  0.93167514  0.00075194  1
  I  I81  1  0.25372963  0.55970711  1.00053089  1
  I  I82  1  0.74772596  0.06718543  0.00138162  1
  I  I83  1  0.74728619  0.44043204  0.99965942  1
  I  I84  1  0.06854198  0.25537016  0.00063260  1
  I  I85  1  0.93275731  0.74738975  0.00124458  1
  I  I86  1  0.44026061  0.25332823  0.99940457  1
  I  I87  1  0.55956619  0.74681684  1.00113563  1
  I  I88  1  0.99424538  0.99719962  0.70806391  1
  I  I89  1  0.99692875  0.99769994  0.26984627  1
  I  I90  1  0.00037218  0.50023387  0.70149856  1
  I  I91  1  0.99771644  0.49718941  0.27273197  1
  I  I92  1  0.49862536  1.00008650  0.70236219  1
  I  I93  1  0.49546988  0.00356696  0.27363387  1
  I  I94  1  0.50018781  0.50033736  0.74199471  1
  I  I95  1  0.49983503  0.49953639  0.32012438  1
  N  N96  1  0.23868611  0.33850845  0.76719154  1
  N  N97  1  0.24502367  0.33787651  0.23193497  1
  N  N98  1  0.33848100  0.76088093  0.76706157  1
  N  N99  1  0.33851400  0.75474605  0.23185875  1
  N  N100  1  0.66192909  0.24478711  0.23155547  1
  N  N101  1  0.66226131  0.23862261  0.76743902  1
  N  N102  1  0.75501003  0.66124110  0.23150130  1
  N  N103  1  0.76085567  0.66226029  0.76732461  1
