# generated using pymatgen
data_H10PbC5S(I2N)2
_symmetry_space_group_name_H-M   'P 1'
_cell_length_a   12.47829121
_cell_length_b   12.35652446
_cell_length_c   11.24892511
_cell_angle_alpha   89.15149371
_cell_angle_beta   89.37576781
_cell_angle_gamma   89.26532560
_symmetry_Int_Tables_number   1
_chemical_formula_structural   H10PbC5S(I2N)2
_chemical_formula_sum   'H40 Pb4 C20 S4 I16 N8'
_cell_volume   1734.02059988
_cell_formula_units_Z   4
loop_
 _symmetry_equiv_pos_site_id
 _symmetry_equiv_pos_as_xyz
  1  'x, y, z'
loop_
 _atom_site_type_symbol
 _atom_site_label
 _atom_site_symmetry_multiplicity
 _atom_site_fract_x
 _atom_site_fract_y
 _atom_site_fract_z
 _atom_site_occupancy
  H  H0  1  0.28237386  0.21316020  0.84634793  1
  H  H1  1  0.33974923  0.29510133  0.74575510  1
  H  H2  1  0.35780423  0.15814991  0.73834603  1
  H  H3  1  0.17009119  0.13199055  0.69766878  1
  H  H4  1  0.14534722  0.27263223  0.71708490  1
  H  H5  1  0.22327318  0.41164425  0.54853737  1
  H  H6  1  0.26917672  0.40064908  0.31761381  1
  H  H7  1  0.32367944  0.11273147  0.22109619  1
  H  H8  1  0.34683684  0.23771681  0.17778107  1
  H  H9  1  0.22124393  0.19328210  0.16613784  1
  H  H10  1  0.20488863  0.70669059  0.85165179  1
  H  H11  1  0.28442519  0.64382255  0.75075632  1
  H  H12  1  0.15075978  0.63936444  0.74003293  1
  H  H13  1  0.13617413  0.83399649  0.70493904  1
  H  H14  1  0.27651910  0.84550609  0.72591767  1
  H  H15  1  0.40973540  0.77540944  0.55134344  1
  H  H16  1  0.39425224  0.73338222  0.32154703  1
  H  H17  1  0.10492659  0.68996743  0.23062074  1
  H  H18  1  0.22778889  0.65734929  0.18645188  1
  H  H19  1  0.18938529  0.78767172  0.17391151  1
  H  H20  1  0.79596724  0.23740902  0.14920378  1
  H  H21  1  0.71297745  0.17426575  0.24298173  1
  H  H22  1  0.84564748  0.15508165  0.25764968  1
  H  H23  1  0.86889762  0.34625741  0.30398034  1
  H  H24  1  0.72975017  0.36900003  0.28121460  1
  H  H25  1  0.59086438  0.28449883  0.44720181  1
  H  H26  1  0.60213881  0.23664077  0.67801271  1
  H  H27  1  0.88821214  0.19110465  0.77819931  1
  H  H28  1  0.76521286  0.16354695  0.82060317  1
  H  H29  1  0.80430356  0.29217580  0.83049827  1
  H  H30  1  0.77231747  0.79784313  0.14875434  1
  H  H31  1  0.84128637  0.71874104  0.24533207  1
  H  H32  1  0.84376134  0.85484338  0.25707039  1
  H  H33  1  0.65201079  0.86216982  0.30115555  1
  H  H34  1  0.64627199  0.71981856  0.28089606  1
  H  H35  1  0.71696824  0.58864464  0.45303313  1
  H  H36  1  0.76070678  0.60360594  0.68267171  1
  H  H37  1  0.79703699  0.89698037  0.77597658  1
  H  H38  1  0.84181789  0.77577226  0.81450549  1
  H  H39  1  0.71051589  0.80283286  0.83155835  1
  Pb  Pb40  1  0.00584079  0.00210410  0.00638175  1
  Pb  Pb41  1  0.99330825  0.49182831  0.99689918  1
  Pb  Pb42  1  0.49577780  0.98588522  0.99734451  1
  Pb  Pb43  1  0.49886184  0.50143253  0.99742016  1
  C  C44  1  0.20315870  0.21293854  0.68213790  1
  C  C45  1  0.22545615  0.23599234  0.55401160  1
  C  C46  1  0.23346862  0.33663114  0.49990603  1
  C  C47  1  0.25747597  0.33115529  0.37678336  1
  C  C48  1  0.26625037  0.22556595  0.34118835  1
  C  C49  1  0.21411383  0.79386947  0.68960198  1
  C  C50  1  0.23582817  0.77438035  0.56124026  1
  C  C51  1  0.33438168  0.76597770  0.50502866  1
  C  C52  1  0.32646575  0.74448819  0.38206830  1
  C  C53  1  0.22128195  0.73765826  0.34878378  1
  C  C54  1  0.78929769  0.31066556  0.31619345  1
  C  C55  1  0.76499839  0.28372845  0.44282168  1
  C  C56  1  0.66524231  0.27319950  0.49583450  1
  C  C57  1  0.67086490  0.24875599  0.61911475  1
  C  C58  1  0.77540419  0.24222036  0.65563480  1
  C  C59  1  0.69572634  0.78526128  0.31489635  1
  C  C60  1  0.72024367  0.76397943  0.44229720  1
  C  C61  1  0.72816711  0.66447120  0.49914259  1
  C  C62  1  0.75054489  0.67226560  0.62188875  1
  C  C63  1  0.75845312  0.77855408  0.65442285  1
  S  S64  1  0.24724595  0.13281888  0.45442704  1
  S  S65  1  0.13174879  0.75615923  0.46396088  1
  S  S66  1  0.86700804  0.26412217  0.54338667  1
  S  S67  1  0.73942634  0.86898968  0.53924771  1
  I  I68  1  0.25038291  0.91734351  0.00977928  1
  I  I69  1  0.24987611  0.51630291  0.04283118  1
  I  I70  1  0.75085384  0.03512767  0.00077820  1
  I  I71  1  0.75547416  0.41290378  0.99120394  1
  I  I72  1  0.08547618  0.24060714  0.00471775  1
  I  I73  1  0.97594696  0.74519092  0.96939413  1
  I  I74  1  0.47393160  0.24454496  0.99638835  1
  I  I75  1  0.59469084  0.74412610  -0.00206530  1
  I  I76  1  0.98063474  0.00970863  0.71906511  1
  I  I77  1  0.98025136  0.00449855  0.29258913  1
  I  I78  1  0.01174327  0.49145342  0.71849462  1
  I  I79  1  0.96223817  0.55881328  0.28141099  1
  I  I80  1  0.47844272  0.99610711  0.71421455  1
  I  I81  1  0.49847894  0.01744561  0.28251670  1
  I  I82  1  0.42480551  0.49449982  0.71505004  1
  I  I83  1  0.52258421  0.50012979  0.27307570  1
  N  N84  1  0.30206129  0.22047681  0.75711954  1
  N  N85  1  0.28870856  0.19041268  0.22084386  1
  N  N86  1  0.21393677  0.69017215  0.76236972  1
  N  N87  1  0.18391632  0.71921024  0.22954211  1
  N  N88  1  0.78581946  0.21294718  0.23718952  1
  N  N89  1  0.81031437  0.22290798  0.77659174  1
  N  N90  1  0.79467834  0.78975426  0.23678644  1
  N  N91  1  0.77662092  0.81575997  0.77400720  1
