# generated using pymatgen
data_H8PbC4S(I2N)2
_symmetry_space_group_name_H-M   'P 1'
_cell_length_a   12.16834903
_cell_length_b   12.25439351
_cell_length_c   10.59579269
_cell_angle_alpha   88.37513116
_cell_angle_beta   88.28964640
_cell_angle_gamma   88.90917857
_symmetry_Int_Tables_number   1
_chemical_formula_structural   H8PbC4S(I2N)2
_chemical_formula_sum   'H32 Pb4 C16 S4 I16 N8'
_cell_volume   1578.39882789
_cell_formula_units_Z   4
loop_
 _symmetry_equiv_pos_site_id
 _symmetry_equiv_pos_as_xyz
  1  'x, y, z'
loop_
 _atom_site_type_symbol
 _atom_site_label
 _atom_site_symmetry_multiplicity
 _atom_site_fract_x
 _atom_site_fract_y
 _atom_site_fract_z
 _atom_site_occupancy
  H  H0  1  0.28091198  0.28290664  0.84178527  1
  H  H1  1  0.37230257  0.31350523  0.72624073  1
  H  H2  1  0.33004020  0.18217851  0.74859376  1
  H  H3  1  0.19444120  0.37951493  0.67152571  1
  H  H4  1  0.14068322  0.24636079  0.69705833  1
  H  H5  1  0.24802717  0.08387346  0.54007567  1
  H  H6  1  0.28593591  0.09527890  0.28743462  1
  H  H7  1  0.28231778  0.28771025  0.21005049  1
  H  H8  1  0.26714200  0.71417889  0.83306507  1
  H  H9  1  0.29623730  0.62115008  0.72311527  1
  H  H10  1  0.16728379  0.67464783  0.73687740  1
  H  H11  1  0.37581983  0.79079706  0.66142660  1
  H  H12  1  0.24619644  0.85868243  0.68099055  1
  H  H13  1  0.07772904  0.77513261  0.52110012  1
  H  H14  1  0.09457536  0.73285665  0.27201061  1
  H  H15  1  0.28969237  0.71233012  0.20370389  1
  H  H16  1  0.71137255  0.21139829  0.16474195  1
  H  H17  1  0.68591508  0.11709327  0.27832496  1
  H  H18  1  0.81574730  0.16209004  0.25245368  1
  H  H19  1  0.61859014  0.29372620  0.34002951  1
  H  H20  1  0.75014928  0.34988625  0.30954161  1
  H  H21  1  0.92091961  0.25670474  0.47014285  1
  H  H22  1  0.90828049  0.21656853  0.72205516  1
  H  H23  1  0.71378722  0.20317450  0.79574101  1
  H  H24  1  0.78437069  0.73740117  0.16158281  1
  H  H25  1  0.87207361  0.68780712  0.26797821  1
  H  H26  1  0.83890239  0.82419249  0.26473445  1
  H  H27  1  0.69650793  0.63180260  0.33333160  1
  H  H28  1  0.64259360  0.76765829  0.31536632  1
  H  H29  1  0.72852277  0.92270446  0.47484133  1
  H  H30  1  0.78543050  0.90576787  0.72016772  1
  H  H31  1  0.80691176  0.71145239  0.78566359  1
  Pb  Pb32  1  0.01698554  1.00252732  0.00110723  1
  Pb  Pb33  1  0.98928766  0.49663193  0.00990202  1
  Pb  Pb34  1  0.50244306  0.99139644  0.99898049  1
  Pb  Pb35  1  0.50205206  0.50141878  0.98717796  1
  C  C36  1  0.21319214  0.29197434  0.66280678  1
  C  C37  1  0.24016335  0.26254770  0.52927516  1
  C  C38  1  0.25410951  0.15837984  0.48233261  1
  C  C39  1  0.27371461  0.16224528  0.35192445  1
  C  C40  1  0.28695643  0.78213689  0.65130412  1
  C  C41  1  0.25784691  0.76003339  0.51847500  1
  C  C42  1  0.15378731  0.75904385  0.46792370  1
  C  C43  1  0.16016344  0.73721036  0.33927321  1
  C  C44  1  0.70727974  0.27632473  0.34482622  1
  C  C45  1  0.74062216  0.25051930  0.47743224  1
  C  C46  1  0.84557664  0.24494009  0.52605688  1
  C  C47  1  0.84125601  0.22407124  0.65638883  1
  C  C48  1  0.71464329  0.71845804  0.34402094  1
  C  C49  1  0.74148671  0.74431322  0.47658436  1
  C  C50  1  0.74645763  0.84733961  0.52724813  1
  C  C51  1  0.77607415  0.84065353  0.65353178  1
  S  S52  1  0.25378604  0.36023193  0.41243012  1
  S  S53  1  0.35775549  0.73247051  0.40755066  1
  S  S54  1  0.64243309  0.22776906  0.59243222  1
  S  S55  1  0.77546538  0.64432481  0.58418128  1
  I  I56  1  0.25941683  0.08769480  0.02507787  1
  I  I57  1  0.24778441  0.43023295  0.02166908  1
  I  I58  1  0.76063368  0.95617661  0.97207287  1
  I  I59  1  0.74395756  0.60046177  0.98181213  1
  I  I60  1  0.92517170  0.25210229  -0.00161061  1
  I  I61  1  0.06020174  0.74769147  0.00917362  1
  I  I62  1  0.57063621  0.24852052  0.98087874  1
  I  I63  1  0.40886089  0.74825875  0.00485100  1
  I  I64  1  0.05158590  0.00344598  0.70299271  1
  I  I65  1  0.95923180  0.99059265  0.30779374  1
  I  I66  1  0.01675201  0.52565537  0.70789071  1
  I  I67  1  0.95549978  0.50149406  0.31658776  1
  I  I68  1  0.47545163  0.01263740  0.70275090  1
  I  I69  1  0.53064058  0.99114095  0.30682467  1
  I  I70  1  0.45853922  0.49766606  0.66990647  1
  I  I71  1  0.50188411  0.49697318  0.27886920  1
  N  N72  1  0.30501810  0.26400676  0.74950471  1
  N  N73  1  0.27475782  0.26484549  0.30488037  1
  N  N74  1  0.25049034  0.69283225  0.74104601  1
  N  N75  1  0.26411057  0.72185976  0.29730593  1
  N  N76  1  0.73337153  0.18636546  0.25561725  1
  N  N77  1  0.73776680  0.21329852  0.70147856  1
  N  N78  1  0.80830716  0.74556726  0.25431145  1
  N  N79  1  0.79268026  0.73728485  0.69339755  1
