# generated using pymatgen
data_H10PbC6(I2N)2
_symmetry_space_group_name_H-M   'P 1'
_cell_length_a   12.72294130
_cell_length_b   12.53677334
_cell_length_c   10.13367913
_cell_angle_alpha   86.08001791
_cell_angle_beta   85.72456473
_cell_angle_gamma   87.38056555
_symmetry_Int_Tables_number   1
_chemical_formula_structural   H10PbC6(I2N)2
_chemical_formula_sum   'H40 Pb4 C24 I16 N8'
_cell_volume   1606.75979269
_cell_formula_units_Z   4
loop_
 _symmetry_equiv_pos_site_id
 _symmetry_equiv_pos_as_xyz
  1  'x, y, z'
loop_
 _atom_site_type_symbol
 _atom_site_label
 _atom_site_symmetry_multiplicity
 _atom_site_fract_x
 _atom_site_fract_y
 _atom_site_fract_z
 _atom_site_occupancy
  H  H0  1  0.20126988  0.25408908  0.78389104  1
  H  H1  1  0.33087165  0.22747719  0.73641242  1
  H  H2  1  0.29057026  0.33766833  0.81777049  1
  H  H3  1  0.18787982  0.40966217  0.63906313  1
  H  H4  1  0.32731209  0.40649604  0.60493240  1
  H  H5  1  0.24288778  0.13232546  0.59220463  1
  H  H6  1  0.23473371  0.04717303  0.37994152  1
  H  H7  1  0.23234380  0.16357103  0.16711259  1
  H  H8  1  0.23503104  0.34979413  0.17948122  1
  H  H9  1  0.24426445  0.44036668  0.36830005  1
  H  H10  1  0.22743553  0.83494221  0.75302318  1
  H  H11  1  0.24142655  0.70001698  0.77998911  1
  H  H12  1  0.33062142  0.77721683  0.83286563  1
  H  H13  1  0.39721150  0.83524329  0.62025207  1
  H  H14  1  0.40557408  0.69289861  0.64377018  1
  H  H15  1  0.13015890  0.75840845  0.59995178  1
  H  H16  1  0.04725622  0.74799793  0.38802603  1
  H  H17  1  0.16321879  0.73978079  0.17585822  1
  H  H18  1  0.34628282  0.74152912  0.18823534  1
  H  H19  1  0.43489957  0.74820594  0.37752756  1
  H  H20  1  0.75834220  0.29934350  0.21998888  1
  H  H21  1  0.77191092  0.16450585  0.24704936  1
  H  H22  1  0.66888040  0.22229478  0.16725645  1
  H  H23  1  0.59430620  0.30692980  0.35626372  1
  H  H24  1  0.60230496  0.16458935  0.38002458  1
  H  H25  1  0.86957832  0.24130288  0.39957355  1
  H  H26  1  0.95290990  0.25219664  0.61101890  1
  H  H27  1  0.83732117  0.26096756  0.82350610  1
  H  H28  1  0.65415925  0.25876471  0.81180625  1
  H  H29  1  0.56522511  0.25160993  0.62285559  1
  H  H30  1  0.67000002  0.77269407  0.26314106  1
  H  H31  1  0.79969642  0.74543465  0.21640015  1
  H  H32  1  0.71016553  0.66223007  0.18223380  1
  H  H33  1  0.67250624  0.59387630  0.39516611  1
  H  H34  1  0.81198254  0.58997242  0.36151931  1
  H  H35  1  0.75708240  0.86770358  0.40795620  1
  H  H36  1  0.76564952  0.95292882  0.62007107  1
  H  H37  1  0.76813939  0.83659551  0.83301005  1
  H  H38  1  0.76534238  0.65036287  0.82071435  1
  H  H39  1  0.75605853  0.55973860  0.63198131  1
  Pb  Pb40  1  0.99585271  -0.00012507  0.00111346  1
  Pb  Pb41  1  0.99995661  0.49838920  0.99978409  1
  Pb  Pb42  1  0.49699791  0.99793833  0.99912682  1
  Pb  Pb43  1  0.49987454  0.49869121  0.99976154  1
  C  C44  1  0.25815624  0.35608893  0.62042458  1
  C  C45  1  0.24786076  0.29436537  0.50021268  1
  C  C46  1  0.24300182  0.18295155  0.50032257  1
  C  C47  1  0.23764331  0.13369989  0.38136341  1
  C  C48  1  0.23602621  0.19588084  0.26361800  1
  C  C49  1  0.24332182  0.35358630  0.37905071  1
  C  C50  1  0.35061419  0.76281736  0.63018518  1
  C  C51  1  0.29047278  0.75443427  0.50910931  1
  C  C52  1  0.18053005  0.75370034  0.50875460  1
  C  C53  1  0.13257639  0.74765921  0.38971889  1
  C  C54  1  0.19448632  0.74281960  0.27244555  1
  C  C55  1  0.34939633  0.74756476  0.38836221  1
  C  C56  1  0.64910283  0.23687909  0.36996731  1
  C  C57  1  0.70938536  0.24530070  0.49089243  1
  C  C58  1  0.81938394  0.24609674  0.49088507  1
  C  C59  1  0.86755142  0.25243620  0.60966070  1
  C  C60  1  0.80589597  0.25754029  0.72709511  1
  C  C61  1  0.65075362  0.25228602  0.61177263  1
  C  C62  1  0.74193304  0.64391447  0.37979782  1
  C  C63  1  0.75233766  0.70569808  0.49997223  1
  C  C64  1  0.75716468  0.81709438  0.49983616  1
  C  C65  1  0.76269948  0.86640589  0.61875233  1
  C  C66  1  0.76443120  0.80427202  0.73651394  1
  C  C67  1  0.75702116  0.64652695  0.62117459  1
  I  I68  1  0.25240301  0.96136516  0.04426218  1
  I  I69  1  0.25197481  0.51358616  0.97382006  1
  I  I70  1  0.75219199  0.04059083  0.95665339  1
  I  I71  1  0.74795837  0.48648821  0.02661670  1
  I  I72  1  0.04464808  0.24924751  0.95013923  1
  I  I73  1  0.95725036  0.74925519  0.05136569  1
  I  I74  1  0.48892201  0.24663111  0.05057650  1
  I  I75  1  0.51357777  0.75083010  0.94681057  1
  I  I76  1  0.07622438  0.97193888  0.69734848  1
  I  I77  1  0.92637522  0.02694652  0.30633610  1
  I  I78  1  0.01705258  0.55201084  0.68930517  1
  I  I79  1  0.98304908  0.44748462  0.31081205  1
  I  I80  1  0.45385449  0.05908020  0.69418415  1
  I  I81  1  0.54735533  0.94018151  0.30267518  1
  I  I82  1  0.52153229  0.49271596  0.68772748  1
  I  I83  1  0.47862783  0.50681377  0.31136690  1
  N  N84  1  0.27172414  0.28828237  0.74556516  1
  N  N85  1  0.23821651  0.30319565  0.26683193  1
  N  N86  1  0.28209681  0.76911865  0.75601101  1
  N  N87  1  0.30041535  0.74282545  0.27595253  1
  N  N88  1  0.71753981  0.23032888  0.24409822  1
  N  N89  1  0.69991615  0.25731844  0.72394806  1
  N  N90  1  0.72898980  0.71161742  0.25445758  1
  N  N91  1  0.76224678  0.69694596  0.73331638  1
