# generated using pymatgen
data_H13PbC7I4N3
_symmetry_space_group_name_H-M   'P 1'
_cell_length_a   12.54123321
_cell_length_b   12.53242698
_cell_length_c   12.20496913
_cell_angle_alpha   89.43111006
_cell_angle_beta   88.85912200
_cell_angle_gamma   89.14780084
_symmetry_Int_Tables_number   1
_chemical_formula_structural   H13PbC7I4N3
_chemical_formula_sum   'H52 Pb4 C28 I16 N12'
_cell_volume   1917.59905471
_cell_formula_units_Z   4
loop_
 _symmetry_equiv_pos_site_id
 _symmetry_equiv_pos_as_xyz
  1  'x, y, z'
loop_
 _atom_site_type_symbol
 _atom_site_label
 _atom_site_symmetry_multiplicity
 _atom_site_fract_x
 _atom_site_fract_y
 _atom_site_fract_z
 _atom_site_occupancy
  H  H0  1  0.35999642  0.33492526  0.77170038  1
  H  H1  1  0.32308222  0.20734488  0.79538275  1
  H  H2  1  0.27637726  0.30633265  0.87528876  1
  H  H3  1  0.13516647  0.26062516  0.75891926  1
  H  H4  1  0.18201079  0.39086508  0.72839080  1
  H  H5  1  0.21660270  0.10317877  0.63921585  1
  H  H6  1  0.25140804  0.05538029  0.44316080  1
  H  H7  1  0.36362851  0.16352072  0.26061875  1
  H  H8  1  0.22678373  0.13840973  0.24152050  1
  H  H9  1  0.31407568  0.35848538  0.24394450  1
  H  H10  1  0.19641736  0.32210994  0.19600331  1
  H  H11  1  0.30975386  0.28530509  0.12947267  1
  H  H12  1  0.23652274  0.43523234  0.54269798  1
  H  H13  1  0.33223619  0.63818419  0.76544202  1
  H  H14  1  0.20839809  0.68437773  0.79659311  1
  H  H15  1  0.31413145  0.72079725  0.86962625  1
  H  H16  1  0.26160736  0.86746210  0.75241947  1
  H  H17  1  0.39241975  0.81776897  0.72176476  1
  H  H18  1  0.10450702  0.78561082  0.63859790  1
  H  H19  1  0.05580094  0.74820786  0.44502772  1
  H  H20  1  0.16291158  0.63651982  0.26470058  1
  H  H21  1  0.13736782  0.77457281  0.24096109  1
  H  H22  1  0.35509345  0.67380795  0.23919079  1
  H  H23  1  0.32469394  0.79787759  0.19684653  1
  H  H24  1  0.28255175  0.69220810  0.12671399  1
  H  H25  1  0.43598028  0.76608571  0.53558494  1
  H  H26  1  0.66591833  0.13563978  0.23199994  1
  H  H27  1  0.79229441  0.17371946  0.20530944  1
  H  H28  1  0.69230459  0.21682838  0.12682112  1
  H  H29  1  0.73976305  0.36210262  0.24056046  1
  H  H30  1  0.60928101  0.31638509  0.27311348  1
  H  H31  1  0.89710893  0.28130956  0.35910633  1
  H  H32  1  0.94477208  0.24479265  0.55419017  1
  H  H33  1  0.83763879  0.13548432  0.73723660  1
  H  H34  1  0.85966687  0.27287247  0.75811508  1
  H  H35  1  0.64237716  0.17709772  0.75707198  1
  H  H36  1  0.67270443  0.29865419  0.80001619  1
  H  H37  1  0.71503415  0.18877368  0.87023423  1
  H  H38  1  0.56512661  0.26529131  0.45936356  1
  H  H39  1  0.86185510  0.66018981  0.23261482  1
  H  H40  1  0.82539525  0.78910254  0.21102184  1
  H  H41  1  0.78312265  0.69172766  0.12933686  1
  H  H42  1  0.63569944  0.73951334  0.24772218  1
  H  H43  1  0.68342888  0.60805014  0.27689003  1
  H  H44  1  0.71801885  0.89528655  0.36303088  1
  H  H45  1  0.75485177  0.94404567  0.55647399  1
  H  H46  1  0.86546657  0.83785660  0.73406270  1
  H  H47  1  0.72784991  0.86144784  0.76165538  1
  H  H48  1  0.82997568  0.64409975  0.75746636  1
  H  H49  1  0.70740741  0.67442885  0.80505966  1
  H  H50  1  0.81575743  0.71716956  0.87094027  1
  H  H51  1  0.73379135  0.56368064  0.46301507  1
  Pb  Pb52  1  0.01425680  0.99766327  0.00314715  1
  Pb  Pb53  1  -0.00547534  0.49505665  0.99647099  1
  Pb  Pb54  1  0.51087121  0.99547841  0.99612154  1
  Pb  Pb55  1  0.49772391  0.49790348  0.00293060  1
  C  C56  1  0.20203603  0.30552836  0.72284179  1
  C  C57  1  0.22554471  0.27335591  0.60679445  1
  C  C58  1  0.23033954  0.16543363  0.57757999  1
  C  C59  1  0.24852597  0.13850888  0.46864195  1
  C  C60  1  0.26126691  0.22134116  0.39209473  1
  C  C61  1  0.28245051  0.19697033  0.27304911  1
  C  C62  1  0.24004247  0.35005557  0.52403546  1
  C  C63  1  0.30725372  0.79998163  0.71727718  1
  C  C64  1  0.27456007  0.77743581  0.60251723  1
  C  C65  1  0.16645970  0.77193167  0.57604435  1
  C  C66  1  0.13899996  0.75206796  0.46859041  1
  C  C67  1  0.22141683  0.73895166  0.39071527  1
  C  C68  1  0.19618308  0.71691531  0.27306035  1
  C  C69  1  0.35076211  0.76235853  0.51875939  1
  C  C70  1  0.69451470  0.29612433  0.27783567  1
  C  C71  1  0.72692358  0.27457792  0.39354402  1
  C  C72  1  0.83484067  0.26874489  0.42141981  1
  C  C73  1  0.86170260  0.24960778  0.52976560  1
  C  C74  1  0.77882616  0.23775708  0.60718683  1
  C  C75  1  0.80256463  0.21600559  0.72587023  1
  C  C76  1  0.65028640  0.26103212  0.47703389  1
  C  C77  1  0.70216348  0.69301301  0.28234999  1
  C  C78  1  0.72344864  0.72520685  0.39770693  1
  C  C79  1  0.72998834  0.83326546  0.42508305  1
  C  C80  1  0.74977886  0.86072747  0.53259894  1
  C  C81  1  0.76213062  0.77830629  0.60962427  1
  C  C82  1  0.78543785  0.80336769  0.72702452  1
  C  C83  1  0.73760548  0.64893890  0.48063366  1
  I  I84  1  0.26202412  0.01093149  0.01376795  1
  I  I85  1  0.24457990  0.50843062  1.00031562  1
  I  I86  1  0.76000960  0.01751861  0.98470026  1
  I  I87  1  0.74354321  0.50006947  0.00718059  1
  I  I88  1  1.00422487  0.24929044  1.00259414  1
  I  I89  1  0.98608316  0.74838880  0.99395137  1
  I  I90  1  0.49460631  0.24946813  0.01451542  1
  I  I91  1  0.49676525  0.74761609  0.98316528  1
  I  I92  1  0.02992661  0.99736530  0.74028427  1
  I  I93  1  0.97066900  0.98194931  0.26410850  1
  I  I94  1  0.99571439  0.52433831  0.73366726  1
  I  I95  1  0.98043248  0.49794119  0.26425741  1
  I  I96  1  0.50252209  0.03271593  0.73565506  1
  I  I97  1  0.52497177  0.99427865  0.26203780  1
  I  I98  1  0.48249890  0.49160114  0.73368548  1
  I  I99  1  0.46518748  0.50176036  0.26456633  1
  N  N100  1  0.29626781  0.28580325  0.79566856  1
  N  N101  1  0.27417205  0.29657333  0.20575828  1
  N  N102  1  0.25741794  0.32484907  0.41869749  1
  N  N103  1  0.28773771  0.70501777  0.79151284  1
  N  N104  1  0.29538062  0.72170849  0.20396366  1
  N  N105  1  0.32504305  0.74390106  0.41468526  1
  N  N106  1  0.71381453  0.20002868  0.20653123  1
  N  N107  1  0.70232898  0.22193452  0.79315370  1
  N  N108  1  0.67541990  0.24346454  0.58184081  1
  N  N109  1  0.79861601  0.71129759  0.20948271  1
  N  N110  1  0.78304865  0.70408952  0.79491525  1
  N  N111  1  0.75607397  0.67466169  0.58477402  1
