# generated using pymatgen
data_H12PbC10(I2N)2
_symmetry_space_group_name_H-M   'P 1'
_cell_length_a   12.72264876
_cell_length_b   12.56832836
_cell_length_c   12.39166484
_cell_angle_alpha   87.78818917
_cell_angle_beta   88.34685515
_cell_angle_gamma   88.52254499
_symmetry_Int_Tables_number   1
_chemical_formula_structural   H12PbC10(I2N)2
_chemical_formula_sum   'H48 Pb4 C40 I16 N8'
_cell_volume   1978.55319989
_cell_formula_units_Z   4
loop_
 _symmetry_equiv_pos_site_id
 _symmetry_equiv_pos_as_xyz
  1  'x, y, z'
loop_
 _atom_site_type_symbol
 _atom_site_label
 _atom_site_symmetry_multiplicity
 _atom_site_fract_x
 _atom_site_fract_y
 _atom_site_fract_z
 _atom_site_occupancy
  H  H0  1  0.14213369  0.18397296  0.77239488  1
  H  H1  1  0.14778846  0.31946291  0.77643159  1
  H  H2  1  0.19984780  0.24174349  0.87423106  1
  H  H3  1  0.34341108  0.30257172  0.76311438  1
  H  H4  1  0.32807603  0.16283312  0.74624794  1
  H  H5  1  0.27820320  0.43550183  0.62731901  1
  H  H6  1  0.24455400  0.47713073  0.43354809  1
  H  H7  1  0.21323664  0.41122747  0.24631987  1
  H  H8  1  0.19403941  0.26900762  0.13848823  1
  H  H9  1  0.20775559  0.08809348  0.19028057  1
  H  H10  1  0.24398536  0.03671282  0.38367982  1
  H  H11  1  0.27451388  0.09829080  0.57342649  1
  H  H12  1  0.18657153  0.87040505  0.75935806  1
  H  H13  1  0.31660277  0.85174498  0.77683946  1
  H  H14  1  0.22808159  0.80390030  0.86840512  1
  H  H15  1  0.29781835  0.65616039  0.76765270  1
  H  H16  1  0.16081685  0.67915158  0.74790269  1
  H  H17  1  0.43037745  0.72655088  0.62994416  1
  H  H18  1  0.47105379  0.75378892  0.43376703  1
  H  H19  1  0.40530835  0.78053456  0.24246083  1
  H  H20  1  0.26245157  0.80164484  0.13147759  1
  H  H21  1  0.08602782  0.78370142  0.18119109  1
  H  H22  1  0.03671586  0.75151036  0.37767046  1
  H  H23  1  0.09794317  0.72562625  0.57009915  1
  H  H24  1  0.81756239  0.36507249  0.22574723  1
  H  H25  1  0.68516594  0.36172303  0.22315760  1
  H  H26  1  0.75856979  0.30574865  0.12594784  1
  H  H27  1  0.69975605  0.16100743  0.23693608  1
  H  H28  1  0.83670807  0.17610415  0.25582901  1
  H  H29  1  0.56722551  0.22446743  0.37101474  1
  H  H30  1  0.52485617  0.25413470  0.56461745  1
  H  H31  1  0.58873705  0.28228257  0.75386158  1
  H  H32  1  0.72866889  0.30110247  0.86409467  1
  H  H33  1  0.90745433  0.29021824  0.81459973  1
  H  H34  1  0.95901022  0.25887630  0.62088220  1
  H  H35  1  0.89964439  0.23043534  0.43017105  1
  H  H36  1  0.63526021  0.81797370  0.23584274  1
  H  H37  1  0.65076613  0.68399558  0.22267953  1
  H  H38  1  0.69998796  0.77154663  0.12922439  1
  H  H39  1  0.84320562  0.70006930  0.23463214  1
  H  H40  1  0.82226700  0.83989426  0.25197049  1
  H  H41  1  0.77163385  0.56783667  0.37207158  1
  H  H42  1  0.74083448  0.52693250  0.56778794  1
  H  H43  1  0.71195582  0.59338995  0.75713217  1
  H  H44  1  0.69205252  0.73739797  0.86691772  1
  H  H45  1  0.70852063  0.91645419  0.81554017  1
  H  H46  1  0.74397633  0.96684553  0.61975028  1
  H  H47  1  0.77311048  0.90465318  0.42811131  1
  Pb  Pb48  1  0.98665419  0.00443690  0.99911239  1
  Pb  Pb49  1  0.99892684  0.50880730  0.99482542  1
  Pb  Pb50  1  0.49235450  0.00881963  0.00389091  1
  Pb  Pb51  1  0.49197663  0.50060891  0.00239304  1
  C  C52  1  0.29298343  0.24255517  0.73045880  1
  C  C53  1  0.27691208  0.26403063  0.61162344  1
  C  C54  1  0.26920338  0.37156981  0.57160164  1
  C  C55  1  0.25127566  0.39490753  0.46437303  1
  C  C56  1  0.24068653  0.31084631  0.39271906  1
  C  C57  1  0.22106990  0.33145535  0.28301951  1
  C  C58  1  0.21807827  0.14607060  0.25170618  1
  C  C59  1  0.23815445  0.12030615  0.35758361  1
  C  C60  1  0.24956555  0.20183637  0.43180247  1
  C  C61  1  0.26800740  0.18073235  0.54279675  1
  C  C62  1  0.23923463  0.71116075  0.73091967  1
  C  C63  1  0.26111069  0.72598834  0.61143221  1
  C  C64  1  0.36712081  0.73342514  0.57242067  1
  C  C65  1  0.39007485  0.74748616  0.46384507  1
  C  C66  1  0.30713654  0.75489780  0.38960352  1
  C  C67  1  0.32681991  0.77204486  0.27833733  1
  C  C68  1  0.14345307  0.77375337  0.24430485  1
  C  C69  1  0.11896144  0.75581165  0.35164433  1
  C  C70  1  0.19979746  0.74693211  0.42792470  1
  C  C71  1  0.17916743  0.73215846  0.54031070  1
  C  C72  1  0.75835081  0.21226983  0.27053240  1
  C  C73  1  0.73639002  0.22738610  0.38905995  1
  C  C74  1  0.63003148  0.23344998  0.42773065  1
  C  C75  1  0.60620537  0.24897616  0.53494176  1
  C  C76  1  0.68862606  0.25877663  0.60830818  1
  C  C77  1  0.66768546  0.27550493  0.71827184  1
  C  C78  1  0.85058145  0.28015948  0.75221373  1
  C  C79  1  0.87645095  0.26293860  0.64615345  1
  C  C80  1  0.79644050  0.25210191  0.57050030  1
  C  C81  1  0.81800350  0.23595397  0.45945604  1
  C  C82  1  0.78975692  0.76072597  0.26925929  1
  C  C83  1  0.77289596  0.73919429  0.38872390  1
  C  C84  1  0.76413058  0.63194151  0.42866544  1
  C  C85  1  0.74785077  0.60892141  0.53702697  1
  C  C86  1  0.73923037  0.69313295  0.60989128  1
  C  C87  1  0.72012704  0.67303418  0.72075198  1
  C  C88  1  0.71843256  0.85845132  0.75302579  1
  C  C89  1  0.73842971  0.88349679  0.64606580  1
  C  C90  1  0.74854805  0.80171333  0.57077451  1
  C  C91  1  0.76576538  0.82245883  0.45862918  1
  I  I92  1  0.24304586  0.99064565  0.00361642  1
  I  I93  1  0.24968962  0.45924949  0.00556124  1
  I  I94  1  0.74334447  0.98043031  0.01907742  1
  I  I95  1  0.75115966  0.50808866  0.97638190  1
  I  I96  1  -0.00043626  0.25233804  0.01825877  1
  I  I97  1  0.01450853  0.75527754  0.96316938  1
  I  I98  1  0.54705649  0.25348166  0.00907677  1
  I  I99  1  0.49705082  0.75425810  0.99983599  1
  I  I100  1  0.04523035  0.02005285  0.72619359  1
  I  I101  1  0.97779498  0.00150915  0.25409548  1
  I  I102  1  0.03466512  0.49051536  0.73736617  1
  I  I103  1  0.97011789  0.48622731  0.25844411  1
  I  I104  1  0.46739150  0.98803174  0.74300881  1
  I  I105  1  0.51508511  0.98532877  0.26695005  1
  I  I106  1  0.48650881  0.50450608  0.74657016  1
  I  I107  1  0.54107676  0.51009468  0.26443830  1
  N  N108  1  0.18948694  0.24758570  0.79201342  1
  N  N109  1  0.21103680  0.25061146  0.21788425  1
  N  N110  1  0.24386586  0.81492422  0.78657208  1
  N  N111  1  0.24648596  0.78123019  0.21128630  1
  N  N112  1  0.75429149  0.31717072  0.20794641  1
  N  N113  1  0.74716642  0.28549048  0.78478089  1
  N  N114  1  0.68780882  0.75719751  0.21121639  1
  N  N115  1  0.71057604  0.75418312  0.78685406  1
