# generated using pymatgen
data_H13PbC8I4N2F
_symmetry_space_group_name_H-M   'P 1'
_cell_length_a   12.47477539
_cell_length_b   12.38328080
_cell_length_c   12.64107644
_cell_angle_alpha   90.33130811
_cell_angle_beta   89.39985048
_cell_angle_gamma   90.00308738
_symmetry_Int_Tables_number   1
_chemical_formula_structural   H13PbC8I4N2F
_chemical_formula_sum   'H52 Pb4 C32 I16 N8 F4'
_cell_volume   1952.63660970
_cell_formula_units_Z   4
loop_
 _symmetry_equiv_pos_site_id
 _symmetry_equiv_pos_as_xyz
  1  'x, y, z'
loop_
 _atom_site_type_symbol
 _atom_site_label
 _atom_site_symmetry_multiplicity
 _atom_site_fract_x
 _atom_site_fract_y
 _atom_site_fract_z
 _atom_site_occupancy
  H  H0  1  0.30870168  0.21376557  0.79286137  1
  H  H1  1  0.31094612  0.34778605  0.77749464  1
  H  H2  1  0.23278204  0.29003236  0.87185986  1
  H  H3  1  0.12058267  0.34795242  0.73377126  1
  H  H4  1  0.11936808  0.20423297  0.74878097  1
  H  H5  1  0.20161749  0.08589852  0.61209576  1
  H  H6  1  0.25844350  0.06500132  0.42412216  1
  H  H7  1  0.30188616  0.13766148  0.25678345  1
  H  H8  1  0.38886037  0.24875556  0.27585821  1
  H  H9  1  0.24896183  0.36845413  0.21829954  1
  H  H10  1  0.16752302  0.26379437  0.19049092  1
  H  H11  1  0.28529087  0.27675354  0.12793271  1
  H  H12  1  0.20145051  0.43288873  0.57530548  1
  H  H13  1  0.20190018  0.69173997  0.79272112  1
  H  H14  1  0.33431859  0.67901847  0.77762474  1
  H  H15  1  0.28332050  0.76153884  0.87242093  1
  H  H16  1  0.34962762  0.87297510  0.73500291  1
  H  H17  1  0.20729992  0.88242392  0.74857144  1
  H  H18  1  0.08841213  0.80146757  0.61418160  1
  H  H19  1  0.06721888  0.74450773  0.42634385  1
  H  H20  1  0.13995438  0.69439282  0.25972597  1
  H  H21  1  0.25157503  0.60808612  0.27790929  1
  H  H22  1  0.36840816  0.75399713  0.22070239  1
  H  H23  1  0.26247342  0.83079407  0.18991023  1
  H  H24  1  0.28094872  0.71157835  0.13016924  1
  H  H25  1  0.43298331  0.79160206  0.57410190  1
  H  H26  1  0.79363752  0.18588634  0.20775366  1
  H  H27  1  0.66105438  0.17733958  0.22509116  1
  H  H28  1  0.71342558  0.25444341  0.12841502  1
  H  H29  1  0.65254127  0.37244820  0.26520547  1
  H  H30  1  0.79469850  0.37842281  0.24982401  1
  H  H31  1  0.91348595  0.29699327  0.38499151  1
  H  H32  1  0.93370152  0.24004799  0.57193353  1
  H  H33  1  0.86018650  0.19562539  0.74031939  1
  H  H34  1  0.74997370  0.10830560  0.72023087  1
  H  H35  1  0.63038092  0.25006070  0.77789121  1
  H  H36  1  0.73374567  0.33101625  0.80894832  1
  H  H37  1  0.71954930  0.21145339  0.86882510  1
  H  H38  1  0.56886524  0.29496408  0.42598337  1
  H  H39  1  0.80809049  0.79245253  0.20919970  1
  H  H40  1  0.81804336  0.65892415  0.22486294  1
  H  H41  1  0.73924381  0.71103870  0.13037894  1
  H  H42  1  0.62415962  0.64992634  0.26840472  1
  H  H43  1  0.61923861  0.79322617  0.25599310  1
  H  H44  1  0.70359892  0.91226889  0.38878016  1
  H  H45  1  0.76075812  0.93433922  0.57536930  1
  H  H46  1  0.80465868  0.86309736  0.74197471  1
  H  H47  1  0.89068587  0.75036024  0.72320011  1
  H  H48  1  0.74611863  0.63372619  0.78105240  1
  H  H49  1  0.66803142  0.74083366  0.80936203  1
  H  H50  1  0.78521551  0.72432490  0.87162772  1
  H  H51  1  0.70498487  0.56539728  0.42782364  1
  Pb  Pb52  1  0.01031961  1.00321636  0.00662991  1
  Pb  Pb53  1  0.99494125  0.50948472  0.99830677  1
  Pb  Pb54  1  0.51523435  0.99780635  0.99987563  1
  Pb  Pb55  1  0.49158312  0.49505065  0.98919305  1
  C  C56  1  0.16706414  0.27347442  0.72138377  1
  C  C57  1  0.20095073  0.26009926  0.60784320  1
  C  C58  1  0.21646224  0.15713151  0.56373379  1
  C  C59  1  0.24682782  0.14541156  0.45788177  1
  C  C60  1  0.26260933  0.23579413  0.39307804  1
  C  C61  1  0.30488744  0.22236170  0.28208762  1
  C  C62  1  0.24439024  0.33683560  0.43960693  1
  C  C63  1  0.21450736  0.35152798  0.54440089  1
  C  C64  1  0.27366880  0.83020427  0.72203033  1
  C  C65  1  0.26114884  0.79739214  0.60826458  1
  C  C66  1  0.15887135  0.78503813  0.56496774  1
  C  C67  1  0.14699253  0.75433829  0.45953648  1
  C  C68  1  0.23673411  0.73473050  0.39454688  1
  C  C69  1  0.22402710  0.69219904  0.28408865  1
  C  C70  1  0.33732257  0.74944774  0.44000024  1
  C  C71  1  0.35206636  0.78043752  0.54418319  1
  C  C72  1  0.72766215  0.32819089  0.27768181  1
  C  C73  1  0.74059728  0.29729759  0.39142752  1
  C  C74  1  0.84266643  0.28290883  0.43423815  1
  C  C75  1  0.85401422  0.25232108  0.53947394  1
  C  C76  1  0.76410823  0.23532918  0.60479247  1
  C  C77  1  0.77647962  0.19286399  0.71489927  1
  C  C78  1  0.66367356  0.25245677  0.55981365  1
  C  C79  1  0.64961953  0.28285421  0.45575620  1
  C  C80  1  0.66886864  0.72515433  0.28150605  1
  C  C81  1  0.70216908  0.73816120  0.39459691  1
  C  C82  1  0.71791547  0.84137444  0.43746046  1
  C  C83  1  0.74900125  0.85378410  0.54232175  1
  C  C84  1  0.76582408  0.76393010  0.60707714  1
  C  C85  1  0.80723357  0.77817559  0.71723883  1
  C  C86  1  0.74875934  0.66229382  0.56163623  1
  C  C87  1  0.71734867  0.64704113  0.45791912  1
  I  I88  1  0.26078147  0.94464673  0.00561352  1
  I  I89  1  0.24305952  0.55433863  0.01151092  1
  I  I90  1  0.76102127  0.06353457  0.99120219  1
  I  I91  1  0.74373239  0.45116350  0.98904210  1
  I  I92  1  0.05814824  0.25809515  0.99982414  1
  I  I93  1  0.93450393  0.75835016  0.99825794  1
  I  I94  1  0.44207887  0.24434698  0.99617525  1
  I  I95  1  0.54869425  0.74439806  0.00628701  1
  I  I96  1  0.01157335  0.00161215  0.75087614  1
  I  I97  1  0.98373400  0.00770346  0.25682905  1
  I  I98  1  0.01971706  0.54597644  0.74960803  1
  I  I99  1  0.96776585  0.52389456  0.25538177  1
  I  I100  1  0.53273390  0.99517325  0.75063356  1
  I  I101  1  0.53051897  0.02224271  0.25698064  1
  I  I102  1  0.45114183  0.50525975  0.73362632  1
  I  I103  1  0.47254492  0.48825433  0.23688190  1
  N  N104  1  0.26129903  0.28186531  0.79460356  1
  N  N105  1  0.24639660  0.28703406  0.20079443  1
  N  N106  1  0.27343122  0.73449082  0.79532241  1
  N  N107  1  0.28819300  0.75247639  0.20241059  1
  N  N108  1  0.72381653  0.23082508  0.20598908  1
  N  N109  1  0.71053052  0.25180263  0.79662770  1
  N  N110  1  0.76425510  0.72176205  0.20759663  1
  N  N111  1  0.74617146  0.71492253  0.79914635  1
  F  F112  1  0.25541725  0.42740869  0.37808439  1
  F  F113  1  0.42681325  0.73267544  0.37740120  1
  F  F114  1  0.57375257  0.23886854  0.62194710  1
  F  F115  1  0.76305727  0.57237383  0.62338310  1
