# generated using pymatgen
data_H12PbC7I4N3F
_symmetry_space_group_name_H-M   'P 1'
_cell_length_a   12.17239054
_cell_length_b   12.36853238
_cell_length_c   12.48167525
_cell_angle_alpha   91.33575135
_cell_angle_beta   92.81869058
_cell_angle_gamma   87.34295097
_symmetry_Int_Tables_number   1
_chemical_formula_structural   H12PbC7I4N3F
_chemical_formula_sum   'H48 Pb4 C28 I16 N12 F4'
_cell_volume   1874.46574523
_cell_formula_units_Z   4
loop_
 _symmetry_equiv_pos_site_id
 _symmetry_equiv_pos_as_xyz
  1  'x, y, z'
loop_
 _atom_site_type_symbol
 _atom_site_label
 _atom_site_symmetry_multiplicity
 _atom_site_fract_x
 _atom_site_fract_y
 _atom_site_fract_z
 _atom_site_occupancy
  H  H0  1  0.13852482  0.29918380  0.77679698  1
  H  H1  1  0.19107208  0.21656004  0.87303617  1
  H  H2  1  0.11864507  0.16460484  0.76795066  1
  H  H3  1  0.34244289  0.25465976  0.77467130  1
  H  H4  1  0.30822969  0.11842136  0.74544240  1
  H  H5  1  0.25993052  0.06306611  0.55882995  1
  H  H6  1  0.14884879  0.33769438  0.26384888  1
  H  H7  1  0.29244989  0.34729765  0.25830715  1
  H  H8  1  0.17413350  0.13986257  0.23860354  1
  H  H9  1  0.30989352  0.15005090  0.23135020  1
  H  H10  1  0.22393558  0.20970240  0.13854829  1
  H  H11  1  0.27321996  0.40407242  0.64289122  1
  H  H12  1  0.30597638  0.83130024  0.78311901  1
  H  H13  1  0.20254817  0.79769341  0.85929144  1
  H  H14  1  0.17526461  0.87801678  0.75614688  1
  H  H15  1  0.24825021  0.64422064  0.74880151  1
  H  H16  1  0.11262450  0.69859552  0.71739237  1
  H  H17  1  0.06457370  0.72789923  0.52819738  1
  H  H18  1  0.34817757  0.85198378  0.26598063  1
  H  H19  1  0.36592230  0.71006198  0.24515793  1
  H  H20  1  0.15228531  0.84160790  0.22523058  1
  H  H21  1  0.16229937  0.70734400  0.21266197  1
  H  H22  1  0.22390087  0.78354986  0.12522640  1
  H  H23  1  0.40843170  0.72721185  0.63700770  1
  H  H24  1  0.70077399  0.37476719  0.22953802  1
  H  H25  1  0.77954758  0.32439544  0.13200366  1
  H  H26  1  0.83809994  0.39023518  0.23656449  1
  H  H27  1  0.74362325  0.17149904  0.22531788  1
  H  H28  1  0.88222389  0.20278136  0.25941447  1
  H  H29  1  0.93847596  0.24231591  0.44845197  1
  H  H30  1  0.65740822  0.35961105  0.72843849  1
  H  H31  1  0.64902837  0.21885958  0.74379682  1
  H  H32  1  0.85958986  0.33720961  0.75960270  1
  H  H33  1  0.84908016  0.20496012  0.77638295  1
  H  H34  1  0.78886058  0.29340038  0.86220017  1
  H  H35  1  0.59129478  0.23299427  0.35466601  1
  H  H36  1  0.64737929  0.69999269  0.23177967  1
  H  H37  1  0.68473844  0.79054104  0.14240218  1
  H  H38  1  0.61225568  0.83356185  0.24517505  1
  H  H39  1  0.84603075  0.74898202  0.24898508  1
  H  H40  1  0.79741045  0.88408049  0.27806350  1
  H  H41  1  0.77044249  0.93202752  0.46933597  1
  H  H42  1  0.63938617  0.64600360  0.72576088  1
  H  H43  1  0.78238067  0.63041156  0.75650072  1
  H  H44  1  0.64865192  0.84056653  0.76790811  1
  H  H45  1  0.78343281  0.82447416  0.79945972  1
  H  H46  1  0.69415446  0.76225841  0.87112759  1
  H  H47  1  0.77337312  0.59502117  0.36618171  1
  Pb  Pb48  1  0.99074590  0.00438549  1.00070559  1
  Pb  Pb49  1  0.01130917  0.50243955  0.99703671  1
  Pb  Pb50  1  0.50317981  0.02212228  0.99093274  1
  Pb  Pb51  1  0.49433408  0.50113387  0.99631050  1
  C  C52  1  0.28107314  0.20339873  0.73402099  1
  C  C53  1  0.26602405  0.22943826  0.61709210  1
  C  C54  1  0.25646147  0.14837989  0.53755100  1
  C  C55  1  0.24168657  0.27220687  0.40168380  1
  C  C56  1  0.22847789  0.29499099  0.28397060  1
  C  C57  1  0.25099021  0.35727735  0.47672966  1
  C  C58  1  0.26305341  0.33735517  0.58519965  1
  C  C59  1  0.20045633  0.71268392  0.71209931  1
  C  C60  1  0.23128854  0.72770459  0.59862097  1
  C  C61  1  0.15186899  0.73451413  0.51392365  1
  C  C62  1  0.28229617  0.75701366  0.38925691  1
  C  C63  1  0.30883893  0.77437263  0.27473044  1
  C  C64  1  0.36614689  0.75017568  0.46981673  1
  C  C65  1  0.34226600  0.73466830  0.57523686  1
  C  C66  1  0.79599686  0.22939791  0.26919157  1
  C  C67  1  0.76916839  0.23902267  0.38531988  1
  C  C68  1  0.85152964  0.24659426  0.46704747  1
  C  C69  1  0.72513811  0.26336832  0.59880669  1
  C  C70  1  0.70153810  0.28092853  0.71505131  1
  C  C71  1  0.63866593  0.25374481  0.52168841  1
  C  C72  1  0.65917973  0.24170627  0.41406881  1
  C  C73  1  0.78061493  0.79849251  0.28683558  1
  C  C74  1  0.77114834  0.76864759  0.40177013  1
  C  C75  1  0.76400102  0.84604566  0.48498398  1
  C  C76  1  0.73988916  0.71646099  0.61049914  1
  C  C77  1  0.71788107  0.68681865  0.72289846  1
  C  C78  1  0.74908589  0.63468962  0.53187587  1
  C  C79  1  0.76573648  0.65923546  0.42688576  1
  I  I80  1  0.24399053  0.02018766  0.99073444  1
  I  I81  1  0.26307943  0.39608906  0.01126694  1
  I  I82  1  0.74768115  0.94247808  0.02150918  1
  I  I83  1  0.75333251  0.54349361  0.97771344  1
  I  I84  1  0.97115215  0.25418004  0.02682097  1
  I  I85  1  0.03523168  0.75054312  0.96690398  1
  I  I86  1  0.59877487  0.25453376  0.98940064  1
  I  I87  1  0.45530343  0.75843410  1.00263410  1
  I  I88  1  0.98554777  0.01507928  0.73565658  1
  I  I89  1  0.02652217  0.99938769  0.25868178  1
  I  I90  1  0.01070851  0.46703786  0.73761636  1
  I  I91  1  0.99374864  0.53041334  0.25270224  1
  I  I92  1  0.49017266  0.96663880  0.73342200  1
  I  I93  1  0.49849438  0.02845592  0.25054077  1
  I  I94  1  0.46248852  0.50655460  0.74649531  1
  I  I95  1  0.54292423  0.51484331  0.26017935  1
  N  N96  1  0.17580023  0.22257231  0.79103190  1
  N  N97  1  0.24447048  0.16916574  0.43259699  1
  N  N98  1  0.23452240  0.19270196  0.21926395  1
  N  N99  1  0.22405093  0.81123652  0.78118794  1
  N  N100  1  0.17690047  0.74847647  0.41188048  1
  N  N101  1  0.20623334  0.77609077  0.20471590  1
  N  N102  1  0.77710866  0.33615189  0.21430215  1
  N  N103  1  0.82997158  0.25858604  0.57107333  1
  N  N104  1  0.80571955  0.27892369  0.78255139  1
  N  N105  1  0.67459377  0.77808904  0.22325711  1
  N  N106  1  0.74924219  0.82049697  0.58706053  1
  N  N107  1  0.71118967  0.78410155  0.79446008  1
  F  F108  1  0.24953637  0.46066130  0.44170452  1
  F  F109  1  0.47257172  0.75893000  0.44338761  1
  F  F110  1  0.53342740  0.25619243  0.55376024  1
  F  F111  1  0.74051513  0.52994536  0.56009822  1
