# generated using pymatgen
data_H11PbC6I4N3
_symmetry_space_group_name_H-M   'P 1'
_cell_length_a   12.68498875
_cell_length_b   12.41447029
_cell_length_c   11.18056884
_cell_angle_alpha   90.64752563
_cell_angle_beta   90.69727402
_cell_angle_gamma   88.82428333
_symmetry_Int_Tables_number   1
_chemical_formula_structural   H11PbC6I4N3
_chemical_formula_sum   'H44 Pb4 C24 I16 N12'
_cell_volume   1760.07850470
_cell_formula_units_Z   4
loop_
 _symmetry_equiv_pos_site_id
 _symmetry_equiv_pos_as_xyz
  1  'x, y, z'
loop_
 _atom_site_type_symbol
 _atom_site_label
 _atom_site_symmetry_multiplicity
 _atom_site_fract_x
 _atom_site_fract_y
 _atom_site_fract_z
 _atom_site_occupancy
  H  H0  1  0.20514879  0.24500550  0.85972856  1
  H  H1  1  0.14591843  0.17806306  0.74712133  1
  H  H2  1  0.14767192  0.31549242  0.74868897  1
  H  H3  1  0.33343962  0.16211975  0.72627540  1
  H  H4  1  0.34375723  0.30570167  0.73719645  1
  H  H5  1  0.27653129  0.42245226  0.56668040  1
  H  H6  1  0.22997024  0.42858003  0.34689762  1
  H  H7  1  0.10869176  0.26591660  0.20586140  1
  H  H8  1  0.22345769  0.31097426  0.15815964  1
  H  H9  1  0.20569981  0.17623945  0.17180891  1
  H  H10  1  0.28007076  0.07484120  0.53766322  1
  H  H11  1  0.24539222  0.79748246  0.85495309  1
  H  H12  1  0.19207581  0.86700128  0.74101970  1
  H  H13  1  0.32416900  0.84645125  0.74896575  1
  H  H14  1  0.16243806  0.67316629  0.72132115  1
  H  H15  1  0.30142687  0.64995732  0.72908034  1
  H  H16  1  0.41700866  0.72080424  0.56143630  1
  H  H17  1  0.42221238  0.76359182  0.34200478  1
  H  H18  1  0.25467473  0.88246558  0.19363559  1
  H  H19  1  0.31037896  0.76518855  0.15307046  1
  H  H20  1  0.17770671  0.77846319  0.16185278  1
  H  H21  1  0.07718161  0.72290498  0.53167569  1
  H  H22  1  0.75203955  0.29250358  0.14427903  1
  H  H23  1  0.82377461  0.35383472  0.25194846  1
  H  H24  1  0.69061811  0.35532781  0.25740105  1
  H  H25  1  0.83647977  0.16200015  0.27797027  1
  H  H26  1  0.69650404  0.15296712  0.26778228  1
  H  H27  1  0.58306591  0.21975388  0.43822585  1
  H  H28  1  0.57739796  0.26097668  0.65946561  1
  H  H29  1  0.73782612  0.37706287  0.81211022  1
  H  H30  1  0.69428809  0.25723559  0.84967184  1
  H  H31  1  0.82539872  0.27661728  0.83526806  1
  H  H32  1  0.92301594  0.22123285  0.46588990  1
  H  H33  1  0.71455180  0.75170306  0.13979928  1
  H  H34  1  0.64735445  0.81405322  0.24920875  1
  H  H35  1  0.66255830  0.67730592  0.24844307  1
  H  H36  1  0.83467093  0.83897592  0.27717280  1
  H  H37  1  0.85555324  0.69617450  0.27055488  1
  H  H38  1  0.78510392  0.57908055  0.43599420  1
  H  H39  1  0.73584355  0.57356272  0.65344638  1
  H  H40  1  0.61176699  0.74186908  0.79309151  1
  H  H41  1  0.72604298  0.68837985  0.84129942  1
  H  H42  1  0.71051223  0.82406675  0.83103914  1
  H  H43  1  0.77902128  0.92666925  0.46522780  1
  Pb  Pb44  1  0.99394243  0.99330156  0.98801668  1
  Pb  Pb45  1  1.00421336  0.50076085  0.99610459  1
  Pb  Pb46  1  0.50024006  -0.00323975  0.99970446  1
  Pb  Pb47  1  0.49958676  0.49185435  0.00696609  1
  C  C48  1  0.29522926  0.23950127  0.70315252  1
  C  C49  1  0.27674016  0.24784886  0.57048014  1
  C  C50  1  0.26599497  0.34827058  0.51513268  1
  C  C51  1  0.24075320  0.35260668  0.39364686  1
  C  C52  1  0.22738100  0.25414146  0.33548318  1
  C  C53  1  0.26747733  0.15468265  0.49933984  1
  C  C54  1  0.23902283  0.70564131  0.69709700  1
  C  C55  1  0.24628953  0.72287892  0.56469683  1
  C  C56  1  0.34425011  0.73141261  0.50962295  1
  C  C57  1  0.34797453  0.75419642  0.38812298  1
  C  C58  1  0.25158875  0.76703506  0.32924327  1
  C  C59  1  0.15507509  0.73284616  0.49328847  1
  C  C60  1  0.76153712  0.20248832  0.30139381  1
  C  C61  1  0.75371746  0.22146507  0.43397669  1
  C  C62  1  0.65564222  0.23031025  0.48988333  1
  C  C63  1  0.65160998  0.25225598  0.61222320  1
  C  C64  1  0.74791859  0.26448114  0.67080664  1
  C  C65  1  0.84491083  0.23135441  0.50494779  1
  C  C66  1  0.80156297  0.76102289  0.30059712  1
  C  C67  1  0.78103981  0.75369065  0.43231252  1
  C  C68  1  0.77188306  0.65339836  0.48705056  1
  C  C69  1  0.74549074  0.64944554  0.60739222  1
  C  C70  1  0.72972190  0.74795065  0.66529536  1
  C  C71  1  0.76835139  0.84693387  0.50302823  1
  I  I72  1  0.25371431  0.03988505  0.01407090  1
  I  I73  1  0.25603360  0.45490883  0.02044577  1
  I  I74  1  0.75107479  0.94899098  0.99702878  1
  I  I75  1  0.75537783  0.54196247  0.98387951  1
  I  I76  1  0.95992829  0.24747138  -0.00151914  1
  I  I77  1  0.05990692  0.74574376  0.98113766  1
  I  I78  1  0.56314900  0.24225369  0.01199252  1
  I  I79  1  0.45363153  0.74310829  1.00042757  1
  I  I80  1  0.05512580  0.00674668  0.69719682  1
  I  I81  1  0.00645392  0.00260088  0.26384169  1
  I  I82  1  0.02564296  0.47816008  0.71668967  1
  I  I83  1  0.97816998  0.46825514  0.28737297  1
  I  I84  1  0.47817046  0.96524614  0.71349402  1
  I  I85  1  0.52943078  0.97614867  0.28498167  1
  I  I86  1  0.50264371  0.50109850  0.72511821  1
  I  I87  1  0.55448946  0.50803593  0.29421223  1
  N  N88  1  0.19211204  0.24544039  0.76854638  1
  N  N89  1  0.18957850  0.25160050  0.21097947  1
  N  N90  1  0.24257852  0.15763242  0.38262478  1
  N  N91  1  0.25154772  0.81015635  0.76425758  1
  N  N92  1  0.24890364  0.79953281  0.20311667  1
  N  N93  1  0.15740617  0.75465913  0.37625910  1
  N  N94  1  0.75651413  0.30728785  0.23518637  1
  N  N95  1  0.75107853  0.29492103  0.79823270  1
  N  N96  1  0.84221440  0.25305251  0.62250723  1
  N  N97  1  0.70015099  0.74963110  0.23036784  1
  N  N98  1  0.69274619  0.75040654  0.78930241  1
  N  N99  1  0.74265712  0.84432248  0.61885527  1
