# generated using pymatgen
data_H11PbC7I4N2F
_symmetry_space_group_name_H-M   'P 1'
_cell_length_a   12.70775682
_cell_length_b   12.38391929
_cell_length_c   11.34068413
_cell_angle_alpha   90.87140350
_cell_angle_beta   91.11824086
_cell_angle_gamma   88.40047578
_symmetry_Int_Tables_number   1
_chemical_formula_structural   H11PbC7I4N2F
_chemical_formula_sum   'H44 Pb4 C28 I16 N8 F4'
_cell_volume   1783.47709466
_cell_formula_units_Z   4
loop_
 _symmetry_equiv_pos_site_id
 _symmetry_equiv_pos_as_xyz
  1  'x, y, z'
loop_
 _atom_site_type_symbol
 _atom_site_label
 _atom_site_symmetry_multiplicity
 _atom_site_fract_x
 _atom_site_fract_y
 _atom_site_fract_z
 _atom_site_occupancy
  H  H0  1  0.21791439  0.24554648  0.85971577  1
  H  H1  1  0.16040612  0.17541515  0.74927356  1
  H  H2  1  0.15733945  0.31277185  0.74980001  1
  H  H3  1  0.35048187  0.16776760  0.73130878  1
  H  H4  1  0.35097242  0.31242794  0.73626366  1
  H  H5  1  0.28642329  0.06992725  0.55416576  1
  H  H6  1  0.23820362  0.07450298  0.34032050  1
  H  H7  1  0.21809904  0.32392724  0.17000783  1
  H  H8  1  0.23391021  0.18836923  0.16063720  1
  H  H9  1  0.11959472  0.24303286  0.20319060  1
  H  H10  1  0.28942646  0.41963264  0.56345994  1
  H  H11  1  0.24499471  0.79270409  0.85416860  1
  H  H12  1  0.19109457  0.86168686  0.74175219  1
  H  H13  1  0.32311979  0.84019138  0.74948152  1
  H  H14  1  0.16349586  0.66554571  0.72575302  1
  H  H15  1  0.30308376  0.64531121  0.72834743  1
  H  H16  1  0.07085274  0.72065008  0.54476453  1
  H  H17  1  0.07593633  0.76027080  0.33015159  1
  H  H18  1  0.32490588  0.77519598  0.16842578  1
  H  H19  1  0.19593305  0.75005789  0.14961330  1
  H  H20  1  0.23209433  0.87161046  0.19307123  1
  H  H21  1  0.41151649  0.70991877  0.56046897  1
  H  H22  1  0.75104665  0.29198466  0.14557026  1
  H  H23  1  0.82523831  0.34969248  0.25226711  1
  H  H24  1  0.69268666  0.35546671  0.25899219  1
  H  H25  1  0.83160124  0.15467953  0.27145799  1
  H  H26  1  0.69114281  0.15415089  0.26663623  1
  H  H27  1  0.92737358  0.21965699  0.44958992  1
  H  H28  1  0.92393475  0.26232051  0.66466092  1
  H  H29  1  0.68267695  0.27087284  0.83698138  1
  H  H30  1  0.81482142  0.26015752  0.84490065  1
  H  H31  1  0.75573470  0.37660515  0.80848538  1
  H  H32  1  0.58705137  0.21148187  0.44092089  1
  H  H33  1  0.70326520  0.75247278  0.14319011  1
  H  H34  1  0.64387425  0.81850680  0.25395214  1
  H  H35  1  0.65500390  0.68098555  0.25358673  1
  H  H36  1  0.83490606  0.83355739  0.26831932  1
  H  H37  1  0.84665570  0.68895798  0.26717291  1
  H  H38  1  0.77830917  0.93249145  0.44869455  1
  H  H39  1  0.73177829  0.92866786  0.66080239  1
  H  H40  1  0.70623907  0.67594165  0.82455108  1
  H  H41  1  0.72954219  0.80874172  0.84211705  1
  H  H42  1  0.61393724  0.77146972  0.78608852  1
  H  H43  1  0.79011783  0.58247449  0.43814117  1
  Pb  Pb44  1  1.00044477  0.99112151  0.98687148  1
  Pb  Pb45  1  0.99620802  0.49787233  -0.00053298  1
  Pb  Pb46  1  0.50479305  0.00151883  0.00274902  1
  Pb  Pb47  1  0.49151429  0.49448362  0.01083971  1
  C  C48  1  0.30713276  0.24188721  0.70541118  1
  C  C49  1  0.28713946  0.24399138  0.57421806  1
  C  C50  1  0.27553716  0.14721010  0.51022805  1
  C  C51  1  0.24960904  0.14907621  0.39048888  1
  C  C52  1  0.23570693  0.24788593  0.33469419  1
  C  C53  1  0.25266085  0.34390216  0.39716941  1
  C  C54  1  0.27746981  0.34323338  0.51674101  1
  C  C55  1  0.23802909  0.69942588  0.69889258  1
  C  C56  1  0.24012320  0.71605923  0.56792043  1
  C  C57  1  0.14624847  0.72778044  0.50192675  1
  C  C58  1  0.14839250  0.74923375  0.38177385  1
  C  C59  1  0.24501737  0.75921248  0.32787933  1
  C  C60  1  0.33808070  0.74341730  0.39289233  1
  C  C61  1  0.33720092  0.72189753  0.51225810  1
  C  C62  1  0.75971676  0.19910548  0.29822474  1
  C  C63  1  0.75796724  0.21656938  0.42976010  1
  C  C64  1  0.85230726  0.22799343  0.49409863  1
  C  C65  1  0.85104523  0.25075497  0.61459578  1
  C  C66  1  0.75514614  0.26156790  0.67111394  1
  C  C67  1  0.66159598  0.24474096  0.60810986  1
  C  C68  1  0.66156072  0.22328234  0.48786544  1
  C  C69  1  0.79863709  0.75907069  0.29672338  1
  C  C70  1  0.78355091  0.75830828  0.42797102  1
  C  C71  1  0.77048506  0.85532170  0.49206519  1
  C  C72  1  0.74502654  0.85383133  0.61099748  1
  C  C73  1  0.73323855  0.75497542  0.66567493  1
  C  C74  1  0.75247764  0.65889864  0.60318087  1
  C  C75  1  0.77720117  0.65917854  0.48486182  1
  I  I76  1  0.25705584  0.04184976  0.01264384  1
  I  I77  1  0.24897295  0.44724840  0.00924918  1
  I  I78  1  0.75786244  0.94401525  0.99636744  1
  I  I79  1  0.74922741  0.54053770  0.98181003  1
  I  I80  1  0.95356922  0.24319699  0.00433972  1
  I  I81  1  0.06541740  0.74129321  0.98308174  1
  I  I82  1  0.56632892  0.24625616  0.00707556  1
  I  I83  1  0.46225764  0.74891961  0.01506953  1
  I  I84  1  0.05063857  0.00846031  0.70463995  1
  I  I85  1  0.01736130  -0.00009572  0.26397785  1
  I  I86  1  0.02686476  0.46985212  0.72117912  1
  I  I87  1  0.97452422  0.47563922  0.28187111  1
  I  I88  1  0.48211083  0.94860463  0.71678512  1
  I  I89  1  0.52739774  0.99560908  0.27870586  1
  I  I90  1  0.48770831  0.51252054  0.73734834  1
  I  I91  1  0.56107541  0.50234491  0.29410101  1
  N  N92  1  0.20434340  0.24395049  0.76972053  1
  N  N93  1  0.20038210  0.25145861  0.21157831  1
  N  N94  1  0.25048349  0.80486428  0.76468462  1
  N  N95  1  0.25031349  0.78998420  0.20434823  1
  N  N96  1  0.75730310  0.30509963  0.23547810  1
  N  N97  1  0.75165580  0.29334346  0.79548246  1
  N  N98  1  0.69350030  0.75214607  0.23331762  1
  N  N99  1  0.69425702  0.75146884  0.78554006  1
  F  F100  1  0.24488873  0.43888272  0.33914070  1
  F  F101  1  0.43088633  0.74987879  0.33667575  1
  F  F102  1  0.56960410  0.24918991  0.66718893  1
  F  F103  1  0.74531237  0.56356723  0.65971406  1
