# generated using pymatgen
data_H14PbC8(I2N)2
_symmetry_space_group_name_H-M   'P 1'
_cell_length_a   12.29675926
_cell_length_b   12.29780162
_cell_length_c   12.86652241
_cell_angle_alpha   89.99594083
_cell_angle_beta   90.00307545
_cell_angle_gamma   90.00927108
_symmetry_Int_Tables_number   1
_chemical_formula_structural   H14PbC8(I2N)2
_chemical_formula_sum   'H56 Pb4 C32 I16 N8'
_cell_volume   1945.71544852
_cell_formula_units_Z   4
loop_
 _symmetry_equiv_pos_site_id
 _symmetry_equiv_pos_as_xyz
  1  'x, y, z'
loop_
 _atom_site_type_symbol
 _atom_site_label
 _atom_site_symmetry_multiplicity
 _atom_site_fract_x
 _atom_site_fract_y
 _atom_site_fract_z
 _atom_site_occupancy
  H  H0  1  0.31899195  0.18100138  0.78458774  1
  H  H1  1  0.31973970  0.31640442  0.78415883  1
  H  H2  1  0.23795555  0.24923456  0.86648860  1
  H  H3  1  0.12837074  0.17680810  0.73238770  1
  H  H4  1  0.12853931  0.32169336  0.73260768  1
  H  H5  1  0.21750985  0.07423649  0.59117249  1
  H  H6  1  0.28196393  0.07466101  0.40780846  1
  H  H7  1  0.37065405  0.32270263  0.26706437  1
  H  H8  1  0.37043033  0.17787469  0.26670378  1
  H  H9  1  0.17952190  0.31873134  0.21607268  1
  H  H10  1  0.17897342  0.18325644  0.21603305  1
  H  H11  1  0.26014135  0.25067029  0.13346186  1
  H  H12  1  0.28219230  0.42527898  0.40863353  1
  H  H13  1  0.21779990  0.42486501  0.59201489  1
  H  H14  1  0.18115023  0.68075315  0.78419037  1
  H  H15  1  0.31659662  0.68029312  0.78426941  1
  H  H16  1  0.24918879  0.76184129  0.86643274  1
  H  H17  1  0.17715686  0.87160683  0.73233100  1
  H  H18  1  0.32205732  0.87136958  0.73271684  1
  H  H19  1  0.07458909  0.78252609  0.59112208  1
  H  H20  1  0.07498746  0.71814661  0.40774311  1
  H  H21  1  0.32304464  0.62940191  0.26702274  1
  H  H22  1  0.17820479  0.62953763  0.26676217  1
  H  H23  1  0.31896522  0.82034972  0.21579132  1
  H  H24  1  0.18350834  0.82105752  0.21611969  1
  H  H25  1  0.25074889  0.73975263  0.13342566  1
  H  H26  1  0.42564364  0.71776451  0.40867606  1
  H  H27  1  0.42524191  0.78219807  0.59205203  1
  H  H28  1  0.81662815  0.18028591  0.21566069  1
  H  H29  1  0.68118680  0.18069854  0.21570458  1
  H  H30  1  0.74919991  0.26180723  0.13346440  1
  H  H31  1  0.82197894  0.37138119  0.26717998  1
  H  H32  1  0.67708420  0.37153555  0.26753298  1
  H  H33  1  0.92520706  0.28223542  0.40785344  1
  H  H34  1  0.92564213  0.21777633  0.59123023  1
  H  H35  1  0.67826314  0.12935948  0.73309562  1
  H  H36  1  0.82310044  0.12934695  0.73286405  1
  H  H37  1  0.68341688  0.32088860  0.78379268  1
  H  H38  1  0.81887536  0.32022274  0.78423181  1
  H  H39  1  0.75063596  0.23955428  0.86649126  1
  H  H40  1  0.57498231  0.21802309  0.59212381  1
  H  H41  1  0.57455237  0.28243133  0.40874790  1
  H  H42  1  0.81975741  0.81641443  0.21577954  1
  H  H43  1  0.81909439  0.68101531  0.21546505  1
  H  H44  1  0.73803354  0.74915601  0.13347015  1
  H  H45  1  0.62858021  0.82167481  0.26730752  1
  H  H46  1  0.62841726  0.67679559  0.26755477  1
  H  H47  1  0.71782436  0.92486699  0.40790970  1
  H  H48  1  0.78223789  0.92528278  0.59128396  1
  H  H49  1  0.87052732  0.67788660  0.73324511  1
  H  H50  1  0.87075390  0.82271349  0.73285780  1
  H  H51  1  0.67909935  0.68327871  0.78396005  1
  H  H52  1  0.67961110  0.81875559  0.78387205  1
  H  H53  1  0.76027541  0.75071749  0.86648700  1
  H  H54  1  0.78204605  0.57466694  0.59214837  1
  H  H55  1  0.71755832  0.57424441  0.40878402  1
  Pb  Pb56  1  0.00058330  0.99841443  -0.00127066  1
  Pb  Pb57  1  0.00184051  0.49940264  0.00042591  1
  Pb  Pb58  1  0.50191956  0.99916298  0.00037847  1
  Pb  Pb59  1  0.50046245  0.49824285  1.00163258  1
  C  C60  1  0.17728166  0.24923988  0.71445880  1
  C  C61  1  0.21532272  0.24949458  0.60377018  1
  C  C62  1  0.23250123  0.15110577  0.55125103  1
  C  C63  1  0.26716135  0.15131844  0.44810248  1
  C  C64  1  0.28428955  0.25001911  0.39600144  1
  C  C65  1  0.32176459  0.25029462  0.28512968  1
  C  C66  1  0.26725679  0.34840632  0.44857228  1
  C  C67  1  0.23260616  0.34820102  0.55171545  1
  C  C68  1  0.24956688  0.82267453  0.71447334  1
  C  C69  1  0.24988340  0.78472343  0.60375559  1
  C  C70  1  0.15143715  0.76758126  0.55119054  1
  C  C71  1  0.15169395  0.73294029  0.44805416  1
  C  C72  1  0.25034984  0.71576940  0.39597539  1
  C  C73  1  0.25065124  0.67824966  0.28513908  1
  C  C74  1  0.34880106  0.73278145  0.44857775  1
  C  C75  1  0.34855266  0.76742856  0.55172425  1
  C  C76  1  0.74951980  0.32264520  0.28540704  1
  C  C77  1  0.74983898  0.28469197  0.39614174  1
  C  C78  1  0.84852084  0.26743563  0.44817223  1
  C  C79  1  0.84876859  0.23277468  0.55132258  1
  C  C80  1  0.75035923  0.21571490  0.60390576  1
  C  C81  1  0.75065596  0.17814042  0.71474842  1
  C  C82  1  0.65167534  0.23284672  0.55183228  1
  C  C83  1  0.65141976  0.26751001  0.44867998  1
  C  C84  1  0.67733094  0.74923995  0.28547614  1
  C  C85  1  0.71535621  0.74949044  0.39616734  1
  C  C86  1  0.73263979  0.84822271  0.44819688  1
  C  C87  1  0.76731284  0.84842635  0.55136882  1
  C  C88  1  0.78435767  0.75002115  0.60394021  1
  C  C89  1  0.82185480  0.75031684  0.71480797  1
  C  C90  1  0.76722644  0.65133152  0.55184157  1
  C  C91  1  0.73254925  0.65112141  0.44871065  1
  I  I92  1  0.25104230  0.93436616  0.98989756  1
  I  I93  1  0.25096600  0.56764609  0.01005527  1
  I  I94  1  0.75099263  0.06751033  0.99011168  1
  I  I95  1  0.75098535  0.43424633  0.00999317  1
  I  I96  1  0.06586213  0.24920241  0.98966531  1
  I  I97  1  0.93280211  0.74909532  0.99038076  1
  I  I98  1  0.43272354  0.24892193  0.00973241  1
  I  I99  1  0.56598824  0.74901442  0.01031012  1
  I  I100  1  0.99973484  0.99950009  0.75063612  1
  I  I101  1  0.00061451  0.99929480  0.25186417  1
  I  I102  1  0.00249475  0.50161922  0.74977843  1
  I  I103  1  0.00198356  0.49798640  0.25107461  1
  I  I104  1  0.50236480  0.99751088  0.74976969  1
  I  I105  1  0.50214146  0.00132993  0.25100579  1
  I  I106  1  0.50044638  0.49903051  0.74849538  1
  I  I107  1  0.49968328  0.49944753  0.24973940  1
  N  N108  1  0.26999302  0.24896853  0.79138728  1
  N  N109  1  0.22859918  0.25077094  0.20871359  1
  N  N110  1  0.24909064  0.72990989  0.79131421  1
  N  N111  1  0.25096412  0.77137603  0.20867196  1
  N  N112  1  0.74910735  0.22987799  0.20858935  1
  N  N113  1  0.75088688  0.27122078  0.79126179  1
  N  N114  1  0.77005458  0.74895586  0.20858672  1
  N  N115  1  0.72871097  0.75080005  0.79123847  1
