# generated using pymatgen
data_H12PbC7(I2N)2
_symmetry_space_group_name_H-M   'P 1'
_cell_length_a   12.29049350
_cell_length_b   12.63927802
_cell_length_c   11.28746035
_cell_angle_alpha   89.99910444
_cell_angle_beta   90.00017264
_cell_angle_gamma   87.86630808
_symmetry_Int_Tables_number   1
_chemical_formula_structural   H12PbC7(I2N)2
_chemical_formula_sum   'H48 Pb4 C28 I16 N8'
_cell_volume   1752.21185124
_cell_formula_units_Z   4
loop_
 _symmetry_equiv_pos_site_id
 _symmetry_equiv_pos_as_xyz
  1  'x, y, z'
loop_
 _atom_site_type_symbol
 _atom_site_label
 _atom_site_symmetry_multiplicity
 _atom_site_fract_x
 _atom_site_fract_y
 _atom_site_fract_z
 _atom_site_occupancy
  H  H0  1  0.14987465  0.17686870  0.73938406  1
  H  H1  1  0.14407817  0.31149888  0.75142286  1
  H  H2  1  0.20571449  0.23418949  0.85565656  1
  H  H3  1  0.34952792  0.17711840  0.72728447  1
  H  H4  1  0.34056840  0.31884654  0.73128413  1
  H  H5  1  0.28170937  0.07920977  0.55279240  1
  H  H6  1  0.23500398  0.08258971  0.33802243  1
  H  H7  1  0.14647420  0.32224331  0.19019569  1
  H  H8  1  0.26294535  0.25809679  0.14800071  1
  H  H9  1  0.15434352  0.18972180  0.18382728  1
  H  H10  1  0.23490968  0.42383316  0.34136603  1
  H  H11  1  0.27995155  0.42082732  0.55650025  1
  H  H12  1  0.18366424  0.85922871  0.74487608  1
  H  H13  1  0.32081250  0.85043129  0.74855184  1
  H  H14  1  0.24840214  0.79559150  0.85668314  1
  H  H15  1  0.17659787  0.66399070  0.72933931  1
  H  H16  1  0.32199117  0.65858180  0.72776239  1
  H  H17  1  0.07164269  0.72447691  0.55582923  1
  H  H18  1  0.06864631  0.76479450  0.34007338  1
  H  H19  1  0.31062475  0.82953796  0.17400472  1
  H  H20  1  0.23340981  0.72581545  0.15044836  1
  H  H21  1  0.17443734  0.84572113  0.18336623  1
  H  H22  1  0.41962704  0.76480032  0.33662795  1
  H  H23  1  0.42325053  0.72376845  0.55202223  1
  H  H24  1  0.82081489  0.35043752  0.25146391  1
  H  H25  1  0.68366694  0.35923172  0.25512079  1
  H  H26  1  0.74842255  0.29560621  0.14331660  1
  H  H27  1  0.82199264  0.15858147  0.27222779  1
  H  H28  1  0.67659746  0.16399413  0.27064802  1
  H  H29  1  0.92325348  0.22375697  0.44796388  1
  H  H30  1  0.91962948  0.26479884  0.66335761  1
  H  H31  1  0.67440590  0.34567665  0.81663010  1
  H  H32  1  0.73349049  0.22582036  0.84954763  1
  H  H33  1  0.81060354  0.32961584  0.82595231  1
  H  H34  1  0.56864506  0.26480141  0.65991879  1
  H  H35  1  0.57164067  0.22447424  0.44416421  1
  H  H36  1  0.64407891  0.81151267  0.24858276  1
  H  H37  1  0.64987202  0.67688327  0.26061635  1
  H  H38  1  0.70571445  0.73420879  0.14434656  1
  H  H39  1  0.84056899  0.81884984  0.26872362  1
  H  H40  1  0.84952563  0.67712034  0.27272520  1
  H  H41  1  0.77994957  0.92083602  0.44350653  1
  H  H42  1  0.73491204  0.92385477  0.65863756  1
  H  H43  1  0.65444860  0.68969298  0.81624347  1
  H  H44  1  0.76295062  0.75825638  0.85199017  1
  H  H45  1  0.64638688  0.82221518  0.80976175  1
  H  H46  1  0.73498768  0.58261176  0.66198592  1
  H  H47  1  0.78169373  0.57921999  0.44721193  1
  Pb  Pb48  1  0.00009857  0.99994489  0.97837047  1
  Pb  Pb49  1  0.00748704  0.49994526  1.00027487  1
  Pb  Pb50  1  0.50748946  0.99994022  -0.00023673  1
  Pb  Pb51  1  0.50010929  0.49993733  0.02163003  1
  C  C52  1  0.30047177  0.24752331  0.70068180  1
  C  C53  1  0.28154270  0.24979565  0.56901985  1
  C  C54  1  0.27117851  0.15472766  0.50688774  1
  C  C55  1  0.24582458  0.15599004  0.38652109  1
  C  C56  1  0.23167006  0.25342500  0.33069659  1
  C  C57  1  0.24543455  0.34910270  0.38868231  1
  C  C58  1  0.27046978  0.34666947  0.50895971  1
  C  C59  1  0.24905442  0.70516298  0.70033875  1
  C  C60  1  0.24760176  0.72379430  0.56868533  1
  C  C61  1  0.14800638  0.73360556  0.50833914  1
  C  C62  1  0.14558337  0.75558035  0.38746144  1
  C  C63  1  0.24381025  0.76803026  0.32883121  1
  C  C64  1  0.34398554  0.75578356  0.38531736  1
  C  C65  1  0.34535209  0.73339834  0.50625753  1
  C  C66  1  0.74905350  0.20516387  0.29965599  1
  C  C67  1  0.74759371  0.22378643  0.43130869  1
  C  C68  1  0.84534854  0.23339115  0.49373886  1
  C  C69  1  0.84398657  0.25578064  0.61466877  1
  C  C70  1  0.74381434  0.26803329  0.67115202  1
  C  C71  1  0.64559099  0.25558227  0.61252994  1
  C  C72  1  0.64801232  0.23360082  0.49164786  1
  C  C73  1  0.80046864  0.74754354  0.29932827  1
  C  C74  1  0.78153787  0.74984280  0.43098164  1
  C  C75  1  0.77047397  0.84667694  0.49101009  1
  C  C76  1  0.74543181  0.84909016  0.61133695  1
  C  C77  1  0.73166658  0.75346486  0.66930720  1
  C  C78  1  0.74581679  0.65598276  0.61347256  1
  C  C79  1  0.77115980  0.65473185  0.49315597  1
  I  I80  1  0.25370341  0.04320292  0.00604991  1
  I  I81  1  0.25158280  0.52292791  0.08717849  1
  I  I82  1  0.75158260  0.02293645  0.91283575  1
  I  I83  1  0.75370097  0.54321915  0.99392715  1
  I  I84  1  0.96717175  0.25361858  0.99783174  1
  I  I85  1  0.00731781  0.75310675  0.97902919  1
  I  I86  1  0.50732255  0.25310322  0.02089108  1
  I  I87  1  0.46718424  0.75361237  0.00220136  1
  I  I88  1  0.04836221  0.00887154  0.69539008  1
  I  I89  1  0.00753648  0.00022767  0.26047723  1
  I  I90  1  0.03006429  0.47659124  0.72060702  1
  I  I91  1  0.97764652  0.46468882  0.28611054  1
  I  I92  1  0.47766207  0.96466691  0.71391526  1
  I  I93  1  0.53005465  0.97660428  0.27944279  1
  I  I94  1  0.50752223  0.50020942  0.73953054  1
  I  I95  1  0.54836712  0.50887025  0.30461021  1
  N  N96  1  0.19350329  0.24283054  0.76575590  1
  N  N97  1  0.19749224  0.25606897  0.20559859  1
  N  N98  1  0.25020916  0.80851143  0.76666198  1
  N  N99  1  0.24030163  0.79419092  0.20176391  1
  N  N100  1  0.75021409  0.30851738  0.23333872  1
  N  N101  1  0.74030977  0.29420046  0.79822096  1
  N  N102  1  0.69350086  0.74284428  0.23424827  1
  N  N103  1  0.69750359  0.75610853  0.79440483  1
