# generated using pymatgen
data_H14PbC10S(I2N)2
_symmetry_space_group_name_H-M   'P 1'
_cell_length_a   12.29953496
_cell_length_b   12.36705759
_cell_length_c   14.85860156
_cell_angle_alpha   90.32116973
_cell_angle_beta   91.54673153
_cell_angle_gamma   89.91393099
_symmetry_Int_Tables_number   1
_chemical_formula_structural   H14PbC10S(I2N)2
_chemical_formula_sum   'H56 Pb4 C40 S4 I16 N8'
_cell_volume   2259.26682128
_cell_formula_units_Z   4
loop_
 _symmetry_equiv_pos_site_id
 _symmetry_equiv_pos_as_xyz
  1  'x, y, z'
loop_
 _atom_site_type_symbol
 _atom_site_label
 _atom_site_symmetry_multiplicity
 _atom_site_fract_x
 _atom_site_fract_y
 _atom_site_fract_z
 _atom_site_occupancy
  H  H0  1  0.14798576  0.35531838  0.79101421  1
  H  H1  1  0.23155331  0.33174440  0.87822598  1
  H  H2  1  0.17981683  0.22798001  0.81975921  1
  H  H3  1  0.33641835  0.39377600  0.75657893  1
  H  H4  1  0.37206931  0.26043363  0.78795629  1
  H  H5  1  0.30138007  0.10333536  0.69541506  1
  H  H6  1  0.26313843  0.03509602  0.54036837  1
  H  H7  1  0.20876572  0.09512478  0.36146036  1
  H  H8  1  0.14444267  0.19047984  0.22190965  1
  H  H9  1  0.09469028  0.32455919  0.23641186  1
  H  H10  1  0.31960674  0.27077769  0.18199482  1
  H  H11  1  0.21481810  0.31628623  0.11927527  1
  H  H12  1  0.27008833  0.39544048  0.20119962  1
  H  H13  1  0.27041162  0.43392922  0.60567217  1
  H  H14  1  0.36474104  0.84614618  0.79173238  1
  H  H15  1  0.33980044  0.76264954  0.87654003  1
  H  H16  1  0.23662054  0.81663596  0.81809687  1
  H  H17  1  0.39930538  0.65677840  0.75300825  1
  H  H18  1  0.26417015  0.62613877  0.78169796  1
  H  H19  1  0.10719434  0.69527009  0.69005346  1
  H  H20  1  0.03620969  0.73705181  0.53612729  1
  H  H21  1  0.09392242  0.79123922  0.35920234  1
  H  H22  1  0.18874404  0.85697024  0.22216812  1
  H  H23  1  0.32674137  0.89930609  0.23554825  1
  H  H24  1  0.25181641  0.67846116  0.18393808  1
  H  H25  1  0.30754573  0.77447624  0.11822245  1
  H  H26  1  0.38364332  0.71550822  0.20004411  1
  H  H27  1  0.43845982  0.72800364  0.60382758  1
  H  H28  1  0.63673257  0.33500865  0.20785449  1
  H  H29  1  0.65077614  0.24767363  0.12185346  1
  H  H30  1  0.75996719  0.29811641  0.17304586  1
  H  H31  1  0.59810570  0.14576777  0.24769905  1
  H  H32  1  0.73222091  0.11252542  0.21658421  1
  H  H33  1  0.89213343  0.18729829  0.30383518  1
  H  H34  1  0.96657047  0.23174616  0.45656927  1
  H  H35  1  0.91366064  0.27511759  0.63644707  1
  H  H36  1  0.82363549  0.32415435  0.78054965  1
  H  H37  1  0.69290024  0.38354891  0.76541868  1
  H  H38  1  0.74485786  0.16737085  0.83516650  1
  H  H39  1  0.66126192  0.26184527  0.87120067  1
  H  H40  1  0.62478402  0.18415808  0.78344826  1
  H  H41  1  0.56316209  0.22077557  0.39569543  1
  H  H42  1  0.66673075  0.63473026  0.20342930  1
  H  H43  1  0.74740575  0.67339583  0.11968428  1
  H  H44  1  0.68746506  0.76631214  0.18543509  1
  H  H45  1  0.85438196  0.60360076  0.24650994  1
  H  H46  1  0.88505982  0.73892401  0.21769964  1
  H  H47  1  0.81536154  0.89266561  0.30695660  1
  H  H48  1  0.77054043  0.96153985  0.45860243  1
  H  H49  1  0.71882445  0.90250399  0.63589014  1
  H  H50  1  0.65656493  0.80510853  0.77511446  1
  H  H51  1  0.61031214  0.66972986  0.76019814  1
  H  H52  1  0.82713424  0.74008353  0.82787636  1
  H  H53  1  0.73557945  0.66153142  0.87348640  1
  H  H54  1  0.80967757  0.61560471  0.78776741  1
  H  H55  1  0.77760779  0.56268636  0.39442522  1
  Pb  Pb56  1  1.00223739  0.99424902  0.99926007  1
  Pb  Pb57  1  0.01587892  0.50924428  0.00445758  1
  Pb  Pb58  1  0.51976427  0.98268673  0.00514921  1
  Pb  Pb59  1  0.50403418  0.48881123  0.02180300  1
  C  C60  1  0.30874131  0.30972631  0.75446225  1
  C  C61  1  0.28532244  0.27206134  0.65994410  1
  C  C62  1  0.28400194  0.16004653  0.64093028  1
  C  C63  1  0.26370631  0.12172126  0.55441558  1
  C  C64  1  0.24386759  0.19579019  0.48421767  1
  C  C65  1  0.21880699  0.17539645  0.39115462  1
  C  C66  1  0.20253467  0.26808049  0.34255055  1
  C  C67  1  0.16592462  0.27187584  0.24646713  1
  C  C68  1  0.24648042  0.30870013  0.50384419  1
  C  C69  1  0.26765831  0.34727287  0.59131220  1
  C  C70  1  0.31548716  0.68701080  0.75020495  1
  C  C71  1  0.27657859  0.71186225  0.65628950  1
  C  C72  1  0.16346442  0.71375907  0.63665527  1
  C  C73  1  0.12359605  0.73609480  0.55071005  1
  C  C74  1  0.19702781  0.75712694  0.48177089  1
  C  C75  1  0.17514105  0.78293672  0.38942880  1
  C  C76  1  0.26747458  0.79872358  0.34175946  1
  C  C77  1  0.27035808  0.83203339  0.24572791  1
  C  C78  1  0.31096566  0.75367426  0.50200265  1
  C  C79  1  0.35108539  0.73097850  0.58890276  1
  C  C80  1  0.68202779  0.17520843  0.24774374  1
  C  C81  1  0.72355059  0.20435102  0.34046223  1
  C  C82  1  0.83704788  0.20793081  0.35784638  1
  C  C83  1  0.87892544  0.23095759  0.44327272  1
  C  C84  1  0.80725758  0.24992517  0.51397476  1
  C  C85  1  0.83180672  0.26932425  0.60715456  1
  C  C86  1  0.74107319  0.28096010  0.65742401  1
  C  C87  1  0.74077137  0.30973289  0.75439136  1
  C  C88  1  0.69293202  0.24694915  0.49565862  1
  C  C89  1  0.65075704  0.22438296  0.40918252  1
  C  C90  1  0.82378298  0.68684049  0.24783848  1
  C  C91  1  0.79760505  0.72398038  0.34132628  1
  C  C92  1  0.79563665  0.83610015  0.36015457  1
  C  C93  1  0.77165401  0.87481399  0.44498807  1
  C  C94  1  0.74962990  0.80121400  0.51406462  1
  C  C95  1  0.72545363  0.82213643  0.60616256  1
  C  C96  1  0.70992635  0.72982422  0.65445365  1
  C  C97  1  0.67909448  0.72463415  0.75022918  1
  C  C98  1  0.75197662  0.68830426  0.49455130  1
  C  C99  1  0.77573202  0.64932025  0.40859157  1
  S  S100  1  0.21747133  0.38508317  0.40836405  1
  S  S101  1  0.38618191  0.78277496  0.40789749  1
  S  S102  1  0.62044370  0.27134215  0.59257885  1
  S  S103  1  0.72261190  0.61260536  0.58913263  1
  I  I104  1  0.26293317  0.93528480  0.00835812  1
  I  I105  1  0.26163064  0.55800100  0.97026543  1
  I  I106  1  0.75936593  0.08644782  0.00735695  1
  I  I107  1  0.76126297  0.45002770  0.02368950  1
  I  I108  1  0.06849901  0.25708072  0.00902028  1
  I  I109  1  0.91822879  0.75279509  0.00402649  1
  I  I110  1  0.44401182  0.23934694  0.02113849  1
  I  I111  1  0.55740037  0.73646700  0.97374531  1
  I  I112  1  0.00896351  0.01267489  0.78565478  1
  I  I113  1  0.00413816  0.99791866  0.21508049  1
  I  I114  1  0.99379421  0.49666990  0.78301324  1
  I  I115  1  0.09382138  0.55528481  0.21115160  1
  I  I116  1  0.50799319  1.00019804  0.78244208  1
  I  I117  1  0.55238810  0.91467361  0.21129706  1
  I  I118  1  0.52738855  0.47975679  0.81283378  1
  I  I119  1  0.50940557  0.49883921  0.24482144  1
  N  N120  1  0.21126631  0.30490932  0.81380444  1
  N  N121  1  0.24965768  0.31658321  0.18452139  1
  N  N122  1  0.31336642  0.78413917  0.81222106  1
  N  N123  1  0.30661206  0.74324416  0.18325208  1
  N  N124  1  0.68282650  0.27002902  0.18456029  1
  N  N125  1  0.68987658  0.22580376  0.81347758  1
  N  N126  1  0.72546484  0.69042693  0.18505417  1
  N  N127  1  0.76846621  0.68263255  0.81245691  1
