# generated using pymatgen
data_H10PbC6(I2N)2
_symmetry_space_group_name_H-M   'P 1'
_cell_length_a   12.75514390
_cell_length_b   12.47573483
_cell_length_c   10.38816399
_cell_angle_alpha   90.00030147
_cell_angle_beta   90.00029875
_cell_angle_gamma   87.98531429
_symmetry_Int_Tables_number   1
_chemical_formula_structural   H10PbC6(I2N)2
_chemical_formula_sum   'H40 Pb4 C24 I16 N8'
_cell_volume   1652.04454253
_cell_formula_units_Z   4
loop_
 _symmetry_equiv_pos_site_id
 _symmetry_equiv_pos_as_xyz
  1  'x, y, z'
loop_
 _atom_site_type_symbol
 _atom_site_label
 _atom_site_symmetry_multiplicity
 _atom_site_fract_x
 _atom_site_fract_y
 _atom_site_fract_z
 _atom_site_occupancy
  H  H0  1  0.14708378  0.32004309  0.72454945  1
  H  H1  1  0.15403359  0.18311041  0.73093975  1
  H  H2  1  0.21528251  0.25788175  0.84054800  1
  H  H3  1  0.33768677  0.32326435  0.68722341  1
  H  H4  1  0.34110505  0.17901774  0.68749094  1
  H  H5  1  0.26608224  0.07781924  0.50332223  1
  H  H6  1  0.21117814  0.08620800  0.26919859  1
  H  H7  1  0.18101571  0.25358749  0.17418755  1
  H  H8  1  0.20711299  0.41895781  0.26852639  1
  H  H9  1  0.26130349  0.42530877  0.50307792  1
  H  H10  1  0.31724050  0.85280543  0.73293063  1
  H  H11  1  0.18542312  0.86277341  0.72396071  1
  H  H12  1  0.24187864  0.79076942  0.84125046  1
  H  H13  1  0.31866456  0.65993478  0.69070116  1
  H  H14  1  0.17874619  0.66490879  0.69109621  1
  H  H15  1  0.07871622  0.73601108  0.50391345  1
  H  H16  1  0.08432462  0.78259331  0.26660586  1
  H  H17  1  0.24545602  0.80966977  0.17129533  1
  H  H18  1  0.40954555  0.78307963  0.26722975  1
  H  H19  1  0.41834717  0.73521602  0.50352594  1
  H  H20  1  0.68542554  0.36277869  0.27604164  1
  H  H21  1  0.81724263  0.35280495  0.26707309  1
  H  H22  1  0.74187784  0.29077228  0.15875188  1
  H  H23  1  0.67873948  0.16491591  0.30890411  1
  H  H24  1  0.81865803  0.15993357  0.30929909  1
  H  H25  1  0.91834638  0.23521731  0.49647487  1
  H  H26  1  0.90954647  0.28307787  0.73277188  1
  H  H27  1  0.74545838  0.30966733  0.82870908  1
  H  H28  1  0.58432458  0.28259159  0.73339777  1
  H  H29  1  0.57871551  0.23601248  0.49608785  1
  H  H30  1  0.65402945  0.68311275  0.26905495  1
  H  H31  1  0.64708264  0.82004556  0.27544857  1
  H  H32  1  0.71528028  0.75788334  0.15944892  1
  H  H33  1  0.84110025  0.67901287  0.31250729  1
  H  H34  1  0.83768724  0.82325993  0.31277627  1
  H  H35  1  0.76130339  0.92530888  0.49691658  1
  H  H36  1  0.70711422  0.91896439  0.73146907  1
  H  H37  1  0.68101629  0.75359618  0.82581069  1
  H  H38  1  0.71117690  0.58621284  0.73080371  1
  H  H39  1  0.76608075  0.57781885  0.49667867  1
  Pb  Pb40  1  0.98732484  0.00156746  0.99744723  1
  Pb  Pb41  1  0.99339118  0.50678620  0.99476834  1
  Pb  Pb42  1  0.49338961  0.00678570  0.00523280  1
  Pb  Pb43  1  0.48732501  0.50156701  0.00255101  1
  C  C44  1  0.29406963  0.25165458  0.66236810  1
  C  C45  1  0.26578340  0.25159758  0.52158025  1
  C  C46  1  0.25314665  0.15484916  0.45556232  1
  C  C47  1  0.22330249  0.15727306  0.32738167  1
  C  C48  1  0.22082571  0.34765338  0.32722595  1
  C  C49  1  0.25062673  0.34878357  0.45526709  1
  C  C50  1  0.24857466  0.70916980  0.66466171  1
  C  C51  1  0.24842023  0.73450888  0.52278082  1
  C  C52  1  0.15340313  0.74606277  0.45552887  1
  C  C53  1  0.15409992  0.77108078  0.32570684  1
  C  C54  1  0.34018128  0.77111702  0.32575184  1
  C  C55  1  0.34283889  0.74585168  0.45558463  1
  C  C56  1  0.74857025  0.20917325  0.33533939  1
  C  C57  1  0.74841893  0.23451082  0.47721789  1
  C  C58  1  0.84283539  0.24585332  0.54441796  1
  C  C59  1  0.84018286  0.27111534  0.67424824  1
  C  C60  1  0.65410331  0.27107973  0.67429516  1
  C  C61  1  0.65340191  0.24606419  0.54447344  1
  C  C62  1  0.79406685  0.75165289  0.33763072  1
  C  C63  1  0.76578227  0.75159723  0.47841610  1
  C  C64  1  0.75062552  0.84878593  0.54473064  1
  C  C65  1  0.72082656  0.84765596  0.67276892  1
  C  C66  1  0.72330280  0.65727738  0.67261441  1
  C  C67  1  0.75314470  0.65485167  0.54444110  1
  I  I68  1  0.24852388  0.98789112  0.02568104  1
  I  I69  1  0.24679239  0.47391887  0.00334214  1
  I  I70  1  0.74679214  0.97391730  0.99665859  1
  I  I71  1  0.74852437  0.48789225  0.97432104  1
  I  I72  1  0.01538868  0.25126390  0.00744797  1
  I  I73  1  0.03651845  0.75206494  0.98105519  1
  I  I74  1  0.53651865  0.25206389  0.01894624  1
  I  I75  1  0.51538487  0.75126366  0.99254602  1
  I  I76  1  0.05169953  0.01604331  0.68542829  1
  I  I77  1  0.98048619  0.00381221  0.29965307  1
  I  I78  1  0.02884039  0.48637467  0.68820320  1
  I  I79  1  0.96116898  0.48329761  0.30383801  1
  I  I80  1  0.46116792  0.98329838  0.69616259  1
  I  I81  1  0.52884049  0.98637495  0.31179752  1
  I  I82  1  0.48048673  0.50380966  0.70034550  1
  I  I83  1  0.55169950  0.51604598  0.31456813  1
  N  N84  1  0.19690974  0.25287970  0.74407916  1
  N  N85  1  0.20814822  0.25269598  0.26795706  1
  N  N86  1  0.24870412  0.80928919  0.74482138  1
  N  N87  1  0.24675440  0.78339821  0.26572341  1
  N  N88  1  0.74870478  0.30929178  0.25518093  1
  N  N89  1  0.74675030  0.28339649  0.73428674  1
  N  N90  1  0.69690746  0.75288071  0.25591789  1
  N  N91  1  0.70814717  0.75270390  0.73204575  1
