# generated using pymatgen
data_H14PbC7S(I2N)2
_symmetry_space_group_name_H-M   'P 1'
_cell_length_a   12.59956371
_cell_length_b   12.59886877
_cell_length_c   11.77489269
_cell_angle_alpha   89.51722737
_cell_angle_beta   89.29771569
_cell_angle_gamma   89.72360467
_symmetry_Int_Tables_number   1
_chemical_formula_structural   H14PbC7S(I2N)2
_chemical_formula_sum   'H56 Pb4 C28 S4 I16 N8'
_cell_volume   1868.92182180
_cell_formula_units_Z   4
loop_
 _symmetry_equiv_pos_site_id
 _symmetry_equiv_pos_as_xyz
  1  'x, y, z'
loop_
 _atom_site_type_symbol
 _atom_site_label
 _atom_site_symmetry_multiplicity
 _atom_site_fract_x
 _atom_site_fract_y
 _atom_site_fract_z
 _atom_site_occupancy
  H  H0  1  0.19581746  0.05838775  0.46356868  1
  H  H1  1  0.25260978  0.06709718  0.59914659  1
  H  H2  1  0.33614079  0.06186547  0.47798246  1
  H  H3  1  0.38108262  0.30878851  0.74225112  1
  H  H4  1  0.36530693  0.17205198  0.70865053  1
  H  H5  1  0.25776008  0.22788202  0.86911002  1
  H  H6  1  0.18827068  0.31488676  0.78642727  1
  H  H7  1  0.18118379  0.18386116  0.76634822  1
  H  H8  1  0.31219038  0.45717034  0.60745644  1
  H  H9  1  0.11268456  0.26007536  0.27178690  1
  H  H10  1  0.18164545  0.14033650  0.30312366  1
  H  H11  1  0.34326091  0.23471237  0.22260816  1
  H  H12  1  0.26088376  0.32811671  0.17112418  1
  H  H13  1  0.24994756  0.20000454  0.13185642  1
  H  H14  1  0.05462975  0.80017524  0.46269798  1
  H  H15  1  0.06462065  0.74675022  0.60083162  1
  H  H16  1  0.06201874  0.66007821  0.48337283  1
  H  H17  1  0.30637074  0.62551915  0.75129541  1
  H  H18  1  0.17012653  0.64286844  0.71806182  1
  H  H19  1  0.22283384  0.75477528  0.87088694  1
  H  H20  1  0.31706675  0.81528098  0.79056472  1
  H  H21  1  0.18785956  0.83235693  0.76224919  1
  H  H22  1  0.45485505  0.69158646  0.61280706  1
  H  H23  1  0.25759596  0.88989368  0.27505933  1
  H  H24  1  0.13849013  0.82068507  0.30507603  1
  H  H25  1  0.23686444  0.66153118  0.21738590  1
  H  H26  1  0.32410228  0.74909916  0.16536987  1
  H  H27  1  0.19525538  0.75810182  0.13240539  1
  H  H28  1  0.94403698  0.29754286  0.53925684  1
  H  H29  1  0.93275361  0.24485942  0.40177718  1
  H  H30  1  0.93438228  0.15802705  0.52050847  1
  H  H31  1  0.69032864  0.12664925  0.25460193  1
  H  H32  1  0.82699094  0.14159688  0.28740296  1
  H  H33  1  0.77311559  0.25586209  0.13241471  1
  H  H34  1  0.68395297  0.32085948  0.21693937  1
  H  H35  1  0.81448861  0.32910740  0.23926177  1
  H  H36  1  0.54231648  0.19809195  0.39002041  1
  H  H37  1  0.74145800  0.39277174  0.72656390  1
  H  H38  1  0.85882927  0.31788412  0.69988193  1
  H  H39  1  0.75405702  0.16282352  0.78125187  1
  H  H40  1  0.66428667  0.25059288  0.82883993  1
  H  H41  1  0.79150549  0.25624860  0.87087042  1
  H  H42  1  0.69453037  0.94553414  0.53262556  1
  H  H43  1  0.75219601  0.93409453  0.39610346  1
  H  H44  1  0.83517858  0.93910536  0.51569619  1
  H  H45  1  0.87841927  0.68932463  0.25290792  1
  H  H46  1  0.85844570  0.82648071  0.28264470  1
  H  H47  1  0.75195737  0.77072307  0.12709428  1
  H  H48  1  0.69222018  0.67508148  0.20570344  1
  H  H49  1  0.67096368  0.80381210  0.23318860  1
  H  H50  1  0.80348569  0.54279124  0.38947702  1
  H  H51  1  0.61367907  0.74492205  0.73245388  1
  H  H52  1  0.67973986  0.86424339  0.69609655  1
  H  H53  1  0.84407844  0.77264540  0.77215549  1
  H  H54  1  0.76363326  0.67930098  0.82862738  1
  H  H55  1  0.75070870  0.80755476  0.86592379  1
  Pb  Pb56  1  0.00642261  0.99065029  0.99967444  1
  Pb  Pb57  1  0.01201301  0.48251120  0.99559801  1
  Pb  Pb58  1  0.50041246  0.99179883  0.99342308  1
  Pb  Pb59  1  0.51580814  0.49522045  0.01341763  1
  C  C60  1  0.26069002  0.09465685  0.51082610  1
  C  C61  1  0.25909075  0.21368004  0.50189939  1
  C  C62  1  0.29307788  0.28360666  0.58984412  1
  C  C63  1  0.32681318  0.25047173  0.70611768  1
  C  C64  1  0.28868104  0.38920039  0.55771239  1
  C  C65  1  0.22777910  0.27060351  0.40648459  1
  C  C66  1  0.18964356  0.22681920  0.29773453  1
  C  C67  1  0.09232578  0.73682549  0.51280829  1
  C  C68  1  0.21136715  0.74025385  0.50416401  1
  C  C69  1  0.28123112  0.70956371  0.59424659  1
  C  C70  1  0.24853915  0.68025334  0.71288605  1
  C  C71  1  0.38688450  0.71366061  0.56180742  1
  C  C72  1  0.26842569  0.76986676  0.40730010  1
  C  C73  1  0.22496276  0.81195371  0.29904901  1
  C  C74  1  0.90505921  0.23557169  0.49001647  1
  C  C75  1  0.78614391  0.24202514  0.49843899  1
  C  C76  1  0.71603590  0.21114180  0.40946459  1
  C  C77  1  0.74875394  0.18028662  0.29174830  1
  C  C78  1  0.61038621  0.21888099  0.44079013  1
  C  C79  1  0.72915221  0.27538984  0.59353016  1
  C  C80  1  0.77183071  0.31399928  0.70271309  1
  C  C81  1  0.75950189  0.90764220  0.48471984  1
  C  C82  1  0.75704530  0.78864832  0.49503745  1
  C  C83  1  0.78870572  0.71708395  0.40636476  1
  C  C84  1  0.82212341  0.74745828  0.28836950  1
  C  C85  1  0.78311496  0.61194351  0.43988573  1
  C  C86  1  0.72686870  0.73319568  0.59257208  1
  C  C87  1  0.68970152  0.77795554  0.70247949  1
  S  S88  1  0.24021542  0.40626873  0.42498049  1
  S  S89  1  0.40397715  0.75801228  0.42666170  1
  S  S90  1  0.59343440  0.26770341  0.57354249  1
  S  S91  1  0.73733849  0.59719116  0.57479795  1
  I  I92  1  0.24984664  0.03647677  0.01088602  1
  I  I93  1  0.26108816  0.48754963  0.04637590  1
  I  I94  1  0.75189805  0.96425574  0.99306975  1
  I  I95  1  0.76515655  0.52915143  0.97315677  1
  I  I96  1  0.95251582  0.23696853  0.99465066  1
  I  I97  1  0.03045660  0.73861192  0.00504269  1
  I  I98  1  0.50971580  0.24501411  0.98044937  1
  I  I99  1  0.46700385  0.74443891  0.00675556  1
  I  I100  1  0.03403917  0.98215174  0.72535215  1
  I  I101  1  0.99694127  0.99832804  0.26807799  1
  I  I102  1  0.04350584  0.45696077  0.72924137  1
  I  I103  1  0.97742055  0.45845748  0.26300533  1
  I  I104  1  0.46900262  0.97181608  0.72677081  1
  I  I105  1  0.49803830  0.99214508  0.26285556  1
  I  I106  1  0.51027582  0.50564513  0.74822351  1
  I  I107  1  0.56016922  0.48518945  0.27738222  1
  N  N108  1  0.23241657  0.24420595  0.78764937  1
  N  N109  1  0.26581206  0.24951885  0.20021092  1
  N  N110  1  0.24419298  0.77685099  0.78904495  1
  N  N111  1  0.24728130  0.74086175  0.19835178  1
  N  N112  1  0.75455722  0.27718981  0.21490630  1
  N  N113  1  0.74278602  0.24135497  0.80166296  1
  N  N114  1  0.72801423  0.74908776  0.20837532  1
  N  N115  1  0.76718277  0.75721689  0.79760144  1
