# generated using pymatgen
data_H14PbC11(I2N)2
_symmetry_space_group_name_H-M   'P 1'
_cell_length_a   12.41990970
_cell_length_b   12.53400460
_cell_length_c   13.62152578
_cell_angle_alpha   91.56183497
_cell_angle_beta   91.09898889
_cell_angle_gamma   89.30252099
_symmetry_Int_Tables_number   1
_chemical_formula_structural   H14PbC11(I2N)2
_chemical_formula_sum   'H56 Pb4 C44 I16 N8'
_cell_volume   2119.15765604
_cell_formula_units_Z   4
loop_
 _symmetry_equiv_pos_site_id
 _symmetry_equiv_pos_as_xyz
  1  'x, y, z'
loop_
 _atom_site_type_symbol
 _atom_site_label
 _atom_site_symmetry_multiplicity
 _atom_site_fract_x
 _atom_site_fract_y
 _atom_site_fract_z
 _atom_site_occupancy
  H  H0  1  0.20014520  0.24542253  0.87651343  1
  H  H1  1  0.14701227  0.17547047  0.78253622  1
  H  H2  1  0.13807559  0.31123376  0.78514542  1
  H  H3  1  0.32944553  0.32936801  0.76808010  1
  H  H4  1  0.34685459  0.18851466  0.78093819  1
  H  H5  1  0.28109892  0.06121978  0.65015745  1
  H  H6  1  0.25315979  0.02820926  0.47138287  1
  H  H7  1  0.22432411  0.09855551  0.30408366  1
  H  H8  1  0.26634138  0.23995246  0.12813089  1
  H  H9  1  0.15529700  0.17792844  0.15942709  1
  H  H10  1  0.15204861  0.30939617  0.14244580  1
  H  H11  1  0.22632772  0.43815032  0.26162751  1
  H  H12  1  0.25633111  0.47151366  0.44043848  1
  H  H13  1  0.27766305  0.40120167  0.60882197  1
  H  H14  1  0.25303942  0.80143889  0.87573125  1
  H  H15  1  0.18211364  0.86008501  0.78593274  1
  H  H16  1  0.31849027  0.85797714  0.78454469  1
  H  H17  1  0.32699723  0.66831595  0.76134223  1
  H  H18  1  0.18514174  0.66017181  0.77669589  1
  H  H19  1  0.05660343  0.72108224  0.64936882  1
  H  H20  1  0.02129194  0.74782363  0.47200807  1
  H  H21  1  0.08984923  0.77408419  0.30474104  1
  H  H22  1  0.22734691  0.72238890  0.12755319  1
  H  H23  1  0.16912951  0.84106795  0.15884520  1
  H  H24  1  0.30192230  0.83130802  0.13668633  1
  H  H25  1  0.43162808  0.77003432  0.25607177  1
  H  H26  1  0.46826982  0.74357827  0.43369168  1
  H  H27  1  0.39931327  0.72411503  0.60326421  1
  H  H28  1  0.73564751  0.29885614  0.12482939  1
  H  H29  1  0.82172331  0.35299038  0.20917202  1
  H  H30  1  0.68765608  0.36399051  0.22332773  1
  H  H31  1  0.67093886  0.16996689  0.23423462  1
  H  H32  1  0.81265848  0.15732284  0.21855548  1
  H  H33  1  0.94115949  0.22087301  0.34916734  1
  H  H34  1  0.97458193  0.24599062  0.52818843  1
  H  H35  1  0.90421911  0.27095987  0.69626304  1
  H  H36  1  0.75605287  0.21922988  0.87058582  1
  H  H37  1  0.82917732  0.32639642  0.84626999  1
  H  H38  1  0.69650479  0.33891420  0.86468525  1
  H  H39  1  0.56185166  0.27198309  0.74281015  1
  H  H40  1  0.52717973  0.24553863  0.56357595  1
  H  H41  1  0.59798567  0.22429166  0.39357252  1
  H  H42  1  0.69817053  0.73472933  0.12509838  1
  H  H43  1  0.64478986  0.81934982  0.21021316  1
  H  H44  1  0.64134027  0.68409017  0.22231560  1
  H  H45  1  0.83421013  0.67095911  0.23736193  1
  H  H46  1  0.84376331  0.81176819  0.22197995  1
  H  H47  1  0.78164039  0.93999199  0.35156394  1
  H  H48  1  0.75338302  0.97423184  0.52928304  1
  H  H49  1  0.72310578  0.90538296  0.69569084  1
  H  H50  1  0.76254477  0.76596639  0.87322380  1
  H  H51  1  0.64852912  0.82716376  0.83547216  1
  H  H52  1  0.65093336  0.69534081  0.85533071  1
  H  H53  1  0.72598992  0.56619408  0.74021505  1
  H  H54  1  0.75845985  0.53107505  0.56266661  1
  H  H55  1  0.77969589  0.60026149  0.39431702  1
  Pb  Pb56  1  1.00024872  0.99624899  0.98129420  1
  Pb  Pb57  1  0.99513405  0.50193664  0.00420437  1
  Pb  Pb58  1  0.50512971  1.00208409  0.00283599  1
  Pb  Pb59  1  0.49270197  0.49947234  0.01623933  1
  C  C60  1  0.29469771  0.25098014  0.74974171  1
  C  C61  1  0.27976724  0.23391274  0.64060883  1
  C  C62  1  0.27328211  0.12806066  0.60092356  1
  C  C63  1  0.25851356  0.10954073  0.50160469  1
  C  C64  1  0.25007909  0.19612750  0.43693391  1
  C  C65  1  0.23273149  0.17942329  0.33466027  1
  C  C66  1  0.22340901  0.26639954  0.27596674  1
  C  C67  1  0.23338230  0.37226149  0.31182548  1
  C  C68  1  0.25019806  0.38995162  0.41107113  1
  C  C69  1  0.25764725  0.30347299  0.47605474  1
  C  C70  1  0.27216189  0.31965812  0.57894548  1
  C  C71  1  0.24931162  0.70765571  0.74561368  1
  C  C72  1  0.23086782  0.72219898  0.63730303  1
  C  C73  1  0.12356773  0.72855170  0.59943573  1
  C  C74  1  0.10372297  0.74285757  0.50089213  1
  C  C75  1  0.19033320  0.75081197  0.43514950  1
  C  C76  1  0.17198058  0.76647121  0.33355868  1
  C  C77  1  0.25860816  0.77410241  0.27308978  1
  C  C78  1  0.36588042  0.76451938  0.30727597  1
  C  C79  1  0.38548763  0.74995431  0.40596588  1
  C  C80  1  0.29921894  0.74347149  0.47238665  1
  C  C81  1  0.31670203  0.72941611  0.57458258  1
  C  C82  1  0.74877903  0.20741289  0.25121358  1
  C  C83  1  0.76672323  0.22251620  0.36026794  1
  C  C84  1  0.87363019  0.22822386  0.39904378  1
  C  C85  1  0.89246078  0.24166703  0.49848807  1
  C  C86  1  0.80513508  0.24969495  0.56401770  1
  C  C87  1  0.82240440  0.26439262  0.66653347  1
  C  C88  1  0.73526718  0.27293491  0.72674562  1
  C  C89  1  0.62810140  0.26495034  0.69173517  1
  C  C90  1  0.60966595  0.25058662  0.59217667  1
  C  C91  1  0.69666032  0.24341669  0.52588166  1
  C  C92  1  0.68027066  0.22980187  0.42289543  1
  C  C93  1  0.79557427  0.74865017  0.25343564  1
  C  C94  1  0.78133509  0.76726657  0.36200316  1
  C  C95  1  0.77445845  0.87345127  0.40086028  1
  C  C96  1  0.75922423  0.89268129  0.49960897  1
  C  C97  1  0.75060188  0.80659563  0.56438301  1
  C  C98  1  0.73190033  0.82424792  0.66579022  1
  C  C99  1  0.72206586  0.73787577  0.72462605  1
  C  C100  1  0.73337179  0.63158040  0.68986705  1
  C  C101  1  0.75124133  0.61287446  0.59136723  1
  C  C102  1  0.75879094  0.69888526  0.52613518  1
  C  C103  1  0.77395528  0.68194765  0.42387979  1
  I  I104  1  0.25653130  0.05119499  0.99402376  1
  I  I105  1  0.24459903  0.50946971  0.05869911  1
  I  I106  1  0.75322309  0.01157651  0.93811961  1
  I  I107  1  0.74507613  0.55170739  0.99374886  1
  I  I108  1  0.96955796  0.25195308  0.00669428  1
  I  I109  1  0.03343867  0.75010090  0.96790616  1
  I  I110  1  0.54091182  0.25481310  1.00447899  1
  I  I111  1  0.46288446  0.75507814  0.00878519  1
  I  I112  1  0.03671199  0.00744805  0.74864183  1
  I  I113  1  0.01861683  0.99505421  0.21648831  1
  I  I114  1  0.01711145  0.46902636  0.76916217  1
  I  I115  1  0.97088090  0.48288138  0.23820214  1
  I  I116  1  0.48342939  0.96169499  0.76381041  1
  I  I117  1  0.52871430  0.99192808  0.23430155  1
  I  I118  1  0.48668854  0.50760901  0.78591406  1
  I  I119  1  0.54954289  0.50945991  0.25440984  1
  N  N120  1  0.18863944  0.24575357  0.80140443  1
  N  N121  1  0.19855219  0.24785679  0.17079113  1
  N  N122  1  0.25029698  0.81324219  0.80114122  1
  N  N123  1  0.23789841  0.79336774  0.16807023  1
  N  N124  1  0.74901887  0.31180265  0.19917591  1
  N  N125  1  0.75525279  0.29061123  0.83284964  1
  N  N126  1  0.68823650  0.74790379  0.19954690  1
  N  N127  1  0.69494121  0.75756027  0.82833846  1
