# generated using pymatgen
data_H9PbC5I4N3
_symmetry_space_group_name_H-M   'P 1'
_cell_length_a   12.21064522
_cell_length_b   12.23298791
_cell_length_c   10.75537311
_cell_angle_alpha   92.99548554
_cell_angle_beta   92.69238806
_cell_angle_gamma   90.13865132
_symmetry_Int_Tables_number   1
_chemical_formula_structural   H9PbC5I4N3
_chemical_formula_sum   'H36 Pb4 C20 I16 N12'
_cell_volume   1602.57358906
_cell_formula_units_Z   4
loop_
 _symmetry_equiv_pos_site_id
 _symmetry_equiv_pos_as_xyz
  1  'x, y, z'
loop_
 _atom_site_type_symbol
 _atom_site_label
 _atom_site_symmetry_multiplicity
 _atom_site_fract_x
 _atom_site_fract_y
 _atom_site_fract_z
 _atom_site_occupancy
  H  H0  1  0.23238237  0.18495009  0.81303197  1
  H  H1  1  0.22284497  0.31080501  0.76152904  1
  H  H2  1  0.13163761  0.21212469  0.71062353  1
  H  H3  1  0.27495278  0.10106873  0.61933467  1
  H  H4  1  0.37062942  0.20724261  0.66160794  1
  H  H5  1  0.27621372  0.41222472  0.58204565  1
  H  H6  1  0.20581741  0.37510047  0.19992109  1
  H  H7  1  0.21449644  0.18414528  0.20907809  1
  H  H8  1  0.24087352  0.09035555  0.39332350  1
  H  H9  1  0.18874722  0.77133152  0.81450102  1
  H  H10  1  0.31387556  0.77945085  0.75974399  1
  H  H11  1  0.21603498  0.87074955  0.71963939  1
  H  H12  1  0.10142187  0.72688182  0.61770629  1
  H  H13  1  0.20641252  0.63139451  0.65106610  1
  H  H14  1  0.41330830  0.72251123  0.57469708  1
  H  H15  1  0.37360773  0.79723539  0.20208014  1
  H  H16  1  0.18253995  0.78791587  0.21319009  1
  H  H17  1  0.08984385  0.75913165  0.39573202  1
  H  H18  1  0.81531696  0.27577405  0.18643640  1
  H  H19  1  0.68978047  0.28610848  0.23961455  1
  H  H20  1  0.78896000  0.37727440  0.28964429  1
  H  H21  1  0.89952449  0.23325433  0.38024534  1
  H  H22  1  0.79394258  0.13810270  0.33414730  1
  H  H23  1  0.58667664  0.22826132  0.41766127  1
  H  H24  1  0.62268076  0.29682595  0.80039257  1
  H  H25  1  0.81442715  0.29195829  0.78967136  1
  H  H26  1  0.90839357  0.26629356  0.60538700  1
  H  H27  1  0.71665247  0.81235969  0.18763828  1
  H  H28  1  0.71192933  0.68665710  0.24085734  1
  H  H29  1  0.62008002  0.78192054  0.28627302  1
  H  H30  1  0.76571546  0.89871987  0.38240916  1
  H  H31  1  0.86065673  0.79344676  0.34622932  1
  H  H32  1  0.77399653  0.58824437  0.42401417  1
  H  H33  1  0.69770110  0.62519977  0.79674927  1
  H  H34  1  0.70382148  0.81604064  0.78714091  1
  H  H35  1  0.73104813  0.90988897  0.60550495  1
  Pb  Pb36  1  0.99919805  0.99844708  0.99424954  1
  Pb  Pb37  1  0.99835928  0.50284372  0.99968151  1
  Pb  Pb38  1  0.50394635  0.00298749  0.99679952  1
  Pb  Pb39  1  0.49469016  0.50106005  0.01250311  1
  C  C40  1  0.28493063  0.19017461  0.63038625  1
  C  C41  1  0.25854697  0.24290518  0.50984265  1
  C  C42  1  0.25807325  0.35738878  0.50009242  1
  C  C43  1  0.22113924  0.34094666  0.29092839  1
  C  C44  1  0.24142735  0.17944970  0.40019930  1
  C  C45  1  0.19056097  0.71624415  0.62651142  1
  C  C46  1  0.24322002  0.74109557  0.50765075  1
  C  C47  1  0.35786547  0.74151985  0.49611988  1
  C  C48  1  0.33985828  0.78090538  0.29167588  1
  C  C49  1  0.17905935  0.75927694  0.40116712  1
  C  C50  1  0.81032110  0.22315880  0.36829627  1
  C  C51  1  0.75615891  0.24741572  0.48916287  1
  C  C52  1  0.64145295  0.24603332  0.49942396  1
  C  C53  1  0.65730627  0.28211709  0.70923200  1
  C  C54  1  0.81920295  0.26465362  0.59877646  1
  C  C55  1  0.77632424  0.80969635  0.37337550  1
  C  C56  1  0.75259802  0.75740330  0.49254677  1
  C  C57  1  0.75364999  0.64278200  0.50313638  1
  C  C58  1  0.71323768  0.65926676  0.70740029  1
  C  C59  1  0.73288054  0.82079741  0.59936863  1
  I  I60  1  0.24998957  0.07778633  0.00740297  1
  I  I61  1  0.24611006  0.43118323  0.97327371  1
  I  I62  1  0.75140051  0.91526382  0.99488089  1
  I  I63  1  0.74894103  0.56341116  0.02649933  1
  I  I64  1  0.92181655  0.24937901  0.99366394  1
  I  I65  1  0.08480854  0.75184097  0.00275245  1
  I  I66  1  0.56572147  0.25258420  0.03348815  1
  I  I67  1  0.44014515  0.75234923  0.97184587  1
  I  I68  1  0.02189992  0.00188768  0.68517676  1
  I  I69  1  0.01353210  0.99908344  0.28808663  1
  I  I70  1  0.00638841  0.47595650  0.70317242  1
  I  I71  1  0.97862941  0.51155212  0.30608404  1
  I  I72  1  0.48730673  0.97545466  0.69701874  1
  I  I73  1  0.52883303  0.00879523  0.29809109  1
  I  I74  1  0.46740655  0.50769122  0.70953660  1
  I  I75  1  0.53587349  0.50441151  0.31144740  1
  N  N76  1  0.21359747  0.22847615  0.73323642  1
  N  N77  1  0.23928460  0.40563614  0.39227446  1
  N  N78  1  0.22371248  0.23075498  0.29285809  1
  N  N79  1  0.23126030  0.78910069  0.73508355  1
  N  N80  1  0.40524229  0.76224238  0.38975527  1
  N  N81  1  0.22956356  0.77770977  0.29509843  1
  N  N82  1  0.77237319  0.29515838  0.26691350  1
  N  N83  1  0.59296203  0.26272893  0.60799282  1
  N  N84  1  0.76764301  0.28141078  0.70658319  1
  N  N85  1  0.70134974  0.76894653  0.26662793  1
  N  N86  1  0.73382450  0.59464149  0.60882243  1
  N  N87  1  0.71490006  0.76957571  0.70493791  1
