# generated using pymatgen
data_H16PbC12(I2N)2
_symmetry_space_group_name_H-M   'P 1'
_cell_length_a   12.57438651
_cell_length_b   12.45828366
_cell_length_c   14.52795604
_cell_angle_alpha   86.86129279
_cell_angle_beta   87.96173017
_cell_angle_gamma   91.17022509
_symmetry_Int_Tables_number   1
_chemical_formula_structural   H16PbC12(I2N)2
_chemical_formula_sum   'H64 Pb4 C48 I16 N8'
_cell_volume   2270.45835264
_cell_formula_units_Z   4
loop_
 _symmetry_equiv_pos_site_id
 _symmetry_equiv_pos_as_xyz
  1  'x, y, z'
loop_
 _atom_site_type_symbol
 _atom_site_label
 _atom_site_symmetry_multiplicity
 _atom_site_fract_x
 _atom_site_fract_y
 _atom_site_fract_z
 _atom_site_occupancy
  H  H0  1  0.16912928  0.17127116  0.80252108  1
  H  H1  1  0.18390252  0.29893301  0.83730822  1
  H  H2  1  0.24100455  0.19673656  0.89355648  1
  H  H3  1  0.36700060  0.31009858  0.79407649  1
  H  H4  1  0.36673243  0.16957176  0.77727681  1
  H  H5  1  0.29623279  0.43801027  0.67535436  1
  H  H6  1  0.24956211  0.47291975  0.51234229  1
  H  H7  1  0.20630105  0.40340807  0.36051255  1
  H  H8  1  0.13168386  0.33012316  0.22349133  1
  H  H9  1  0.13244780  0.18969323  0.20631519  1
  H  H10  1  0.25720705  0.30420446  0.10670344  1
  H  H11  1  0.31540606  0.20251175  0.16273757  1
  H  H12  1  0.32923191  0.33022137  0.19761314  1
  H  H13  1  0.20349401  0.06199862  0.32491427  1
  H  H14  1  0.25053049  0.02709711  0.48783665  1
  H  H15  1  0.29342160  0.09660158  0.63982388  1
  H  H16  1  0.18345453  0.83445578  0.79304402  1
  H  H17  1  0.30884077  0.81942317  0.82792762  1
  H  H18  1  0.20648697  0.76313197  0.89056737  1
  H  H19  1  0.31262471  0.63407849  0.80316942  1
  H  H20  1  0.17248122  0.63256105  0.78596907  1
  H  H21  1  0.43894219  0.70470472  0.67833744  1
  H  H22  1  0.47137829  0.75233192  0.51159606  1
  H  H23  1  0.40039139  0.79480381  0.35670827  1
  H  H24  1  0.32753274  0.86793865  0.21401340  1
  H  H25  1  0.18746203  0.86487401  0.19640494  1
  H  H26  1  0.29501538  0.73637129  0.10958468  1
  H  H27  1  0.19339476  0.67928083  0.17254334  1
  H  H28  1  0.31888757  0.66594144  0.20734754  1
  H  H29  1  0.06135260  0.79521018  0.32154418  1
  H  H30  1  0.02888781  0.74783571  0.48831000  1
  H  H31  1  0.09989241  0.70535230  0.64327978  1
  H  H32  1  0.82116185  0.33609961  0.19569227  1
  H  H33  1  0.69314959  0.32119493  0.16576073  1
  H  H34  1  0.79017825  0.26496089  0.10601551  1
  H  H35  1  0.68586363  0.13390295  0.20694702  1
  H  H36  1  0.82564163  0.13632110  0.22311121  1
  H  H37  1  0.56092087  0.20226308  0.32511113  1
  H  H38  1  0.52907523  0.24800966  0.48759381  1
  H  H39  1  0.60035883  0.29050242  0.63927313  1
  H  H40  1  0.67456403  0.36278951  0.77716449  1
  H  H41  1  0.81442527  0.36636647  0.79282385  1
  H  H42  1  0.71096332  0.23426645  0.89391273  1
  H  H43  1  0.80892642  0.17926438  0.83433448  1
  H  H44  1  0.68113604  0.16297602  0.80416417  1
  H  H45  1  0.93944002  0.29788248  0.67472187  1
  H  H46  1  0.97122127  0.25222867  0.51219085  1
  H  H47  1  0.89996684  0.20951087  0.36071671  1
  H  H48  1  0.66974667  0.81187792  0.19686805  1
  H  H49  1  0.68989858  0.68341467  0.16767357  1
  H  H50  1  0.74589788  0.78615556  0.10460716  1
  H  H51  1  0.87246606  0.68846078  0.20233885  1
  H  H52  1  0.86639985  0.83006829  0.21488942  1
  H  H53  1  0.79143209  0.55996159  0.32462008  1
  H  H54  1  0.74449532  0.52680334  0.49098009  1
  H  H55  1  0.70353365  0.59795653  0.64441841  1
  H  H56  1  0.63378160  0.66983651  0.78484031  1
  H  H57  1  0.62646015  0.81141526  0.79704160  1
  H  H58  1  0.75319917  0.71467102  0.89530613  1
  H  H59  1  0.80849421  0.81824295  0.83271335  1
  H  H60  1  0.83024370  0.69002635  0.80332297  1
  H  H61  1  0.70822515  0.94023191  0.67508282  1
  H  H62  1  0.75555907  0.97337277  0.50877061  1
  H  H63  1  0.79668837  0.90221523  0.35538403  1
  Pb  Pb64  1  0.01123115  1.00108364  0.99585372  1
  Pb  Pb65  1  0.98902452  0.50553355  0.99467211  1
  Pb  Pb66  1  0.50711074  0.99298604  0.00545182  1
  Pb  Pb67  1  0.48668133  0.49457020  0.00392875  1
  C  C68  1  0.32117780  0.24327549  0.76738506  1
  C  C69  1  0.29545019  0.26423881  0.66800776  1
  C  C70  1  0.28320784  0.37116474  0.63127756  1
  C  C71  1  0.25792134  0.39057287  0.54045467  1
  C  C72  1  0.24343599  0.30416123  0.48186782  1
  C  C73  1  0.21682131  0.32121240  0.38831432  1
  C  C74  1  0.20412326  0.23576136  0.33231158  1
  C  C75  1  0.17784655  0.25676657  0.23306423  1
  C  C76  1  0.21655575  0.12884619  0.36898352  1
  C  C77  1  0.24206207  0.10943984  0.45976183  1
  C  C78  1  0.25653935  0.19584009  0.51836496  1
  C  C79  1  0.28295725  0.17878827  0.61197595  1
  C  C80  1  0.24717767  0.67877179  0.77228400  1
  C  C81  1  0.26667837  0.70423129  0.67090083  1
  C  C82  1  0.37223515  0.71726343  0.63328142  1
  C  C83  1  0.39021618  0.74293307  0.54055167  1
  C  C84  1  0.30361354  0.75678719  0.48114337  1
  C  C85  1  0.31927327  0.78321908  0.38555455  1
  C  C86  1  0.23361323  0.79574215  0.32899776  1
  C  C87  1  0.25324067  0.82100849  0.22759092  1
  C  C88  1  0.12805430  0.78272849  0.36661244  1
  C  C89  1  0.11006190  0.75718952  0.45936839  1
  C  C90  1  0.19664316  0.74336198  0.51879882  1
  C  C91  1  0.18099782  0.71688125  0.61439512  1
  C  C92  1  0.75201139  0.18080231  0.23328338  1
  C  C93  1  0.73322099  0.20524721  0.33251512  1
  C  C94  1  0.62788264  0.21566214  0.36916868  1
  C  C95  1  0.61015590  0.24044738  0.45963157  1
  C  C96  1  0.69676037  0.25572886  0.51813693  1
  C  C97  1  0.68139339  0.28118918  0.61156343  1
  C  C98  1  0.76713880  0.29475714  0.66739442  1
  C  C99  1  0.74851389  0.31893404  0.76669528  1
  C  C100  1  0.87246264  0.28447294  0.63068424  1
  C  C101  1  0.89017000  0.25973984  0.54020794  1
  C  C102  1  0.80352674  0.24442881  0.48175557  1
  C  C103  1  0.81891473  0.21886876  0.38836975  1
  C  C104  1  0.82352146  0.75290973  0.22871010  1
  C  C105  1  0.79520334  0.73383287  0.32961597  1
  C  C106  1  0.78009645  0.62731686  0.36858660  1
  C  C107  1  0.75469172  0.60888129  0.46116314  1
  C  C108  1  0.74255765  0.69607576  0.51939095  1
  C  C109  1  0.71596810  0.67998183  0.61482849  1
  C  C110  1  0.70470022  0.76634286  0.67010898  1
  C  C111  1  0.67607358  0.74730223  0.77096240  1
  C  C112  1  0.71975998  0.87287201  0.63113715  1
  C  C113  1  0.74537054  0.89129162  0.53860666  1
  C  C114  1  0.75761384  0.80409770  0.48039308  1
  C  C115  1  0.78416105  0.82019962  0.38494975  1
  I  I116  1  0.26397689  0.05446825  0.02808251  1
  I  I117  1  0.23418153  0.44712518  0.97196493  1
  I  I118  1  0.76408786  0.95443486  0.97586794  1
  I  I119  1  0.73376060  0.54782498  0.02302292  1
  I  I120  1  0.94885259  0.25181530  0.97578312  1
  I  I121  1  0.05937258  0.75009643  0.02202928  1
  I  I122  1  0.55435092  0.24622191  0.02416097  1
  I  I123  1  0.44311328  0.74737892  0.97784101  1
  I  I124  1  0.05913178  -0.00016647  0.77074317  1
  I  I125  1  0.99578404  0.00770193  0.21015200  1
  I  I126  1  0.96204840  0.54996146  0.77626254  1
  I  I127  1  0.97833398  0.47718792  0.21496230  1
  I  I128  1  0.51997346  0.02233366  0.78542652  1
  I  I129  1  0.53716550  0.95077772  0.22403791  1
  I  I130  1  0.50422265  0.49103974  0.78964971  1
  I  I131  1  0.44068734  0.49940042  0.22950216  1
  N  N132  1  0.22179516  0.22745858  0.82819611  1
  N  N133  1  0.27690247  0.27362180  0.17196882  1
  N  N134  1  0.23620671  0.78051541  0.82343741  1
  N  N135  1  0.26554859  0.71915941  0.17679816  1
  N  N136  1  0.76446176  0.28260874  0.17214413  1
  N  N137  1  0.73716526  0.21699076  0.82778679  1
  N  N138  1  0.72575834  0.75812818  0.17164249  1
  N  N139  1  0.77355737  0.74313865  0.82840029  1
