# generated using pymatgen
data_H14PbC7S(I2N)2
_symmetry_space_group_name_H-M   'P 1'
_cell_length_a   12.76428193
_cell_length_b   12.92336255
_cell_length_c   12.17824638
_cell_angle_alpha   88.72536951
_cell_angle_beta   87.54522072
_cell_angle_gamma   89.81278832
_symmetry_Int_Tables_number   1
_chemical_formula_structural   H14PbC7S(I2N)2
_chemical_formula_sum   'H56 Pb4 C28 S4 I16 N8'
_cell_volume   2006.54687919
_cell_formula_units_Z   4
loop_
 _symmetry_equiv_pos_site_id
 _symmetry_equiv_pos_as_xyz
  1  'x, y, z'
loop_
 _atom_site_type_symbol
 _atom_site_label
 _atom_site_symmetry_multiplicity
 _atom_site_fract_x
 _atom_site_fract_y
 _atom_site_fract_z
 _atom_site_occupancy
  H  H0  1  0.20728132  0.05202924  0.34187751  1
  H  H1  1  0.32257065  0.01945200  0.41292298  1
  H  H2  1  0.33165562  0.10245537  0.29607967  1
  H  H3  1  0.13366405  0.31011625  0.74488594  1
  H  H4  1  0.20359290  0.42201989  0.69921231  1
  H  H5  1  0.36324363  0.34031916  0.76633241  1
  H  H6  1  0.29231233  0.23733259  0.81409557  1
  H  H7  1  0.26871665  0.35384576  0.86438413  1
  H  H8  1  0.24958049  0.42908581  0.49276931  1
  H  H9  1  0.31337293  0.39721413  0.29207471  1
  H  H10  1  0.35403979  0.27258594  0.25311063  1
  H  H11  1  0.13387537  0.35320614  0.24689238  1
  H  H12  1  0.17252656  0.23439067  0.20975137  1
  H  H13  1  0.21970701  0.33764363  0.14184585  1
  H  H14  1  0.04829269  0.79119052  0.33858448  1
  H  H15  1  0.01381189  0.67567937  0.41395669  1
  H  H16  1  0.10133304  0.66936329  0.29820650  1
  H  H17  1  0.30134508  0.88504238  0.71991374  1
  H  H18  1  0.41080643  0.80269931  0.69504102  1
  H  H19  1  0.30797191  0.66512194  0.79696024  1
  H  H20  1  0.21355751  0.75342214  0.82381481  1
  H  H21  1  0.33277999  0.76956766  0.87001272  1
  H  H22  1  0.42461853  0.74718189  0.49810055  1
  H  H23  1  0.39719320  0.66771448  0.30489546  1
  H  H24  1  0.26997115  0.64234058  0.26210613  1
  H  H25  1  0.37872816  0.84757120  0.24712381  1
  H  H26  1  0.25685193  0.82698937  0.20636697  1
  H  H27  1  0.35851924  0.76782991  0.14583971  1
  H  H28  1  0.95341702  0.25958901  0.65528691  1
  H  H29  1  0.97993973  0.14834265  0.57541465  1
  H  H30  1  0.89547079  0.13949481  0.69432532  1
  H  H31  1  0.69846428  0.35694794  0.25707514  1
  H  H32  1  0.58051540  0.29747578  0.30564358  1
  H  H33  1  0.64846179  0.13246032  0.23480648  1
  H  H34  1  0.75822812  0.19134358  0.18582677  1
  H  H35  1  0.64326699  0.22591801  0.13818051  1
  H  H36  1  0.57051915  0.25529775  0.51141994  1
  H  H37  1  0.59959239  0.18985420  0.71198762  1
  H  H38  1  0.72309627  0.13980972  0.74465395  1
  H  H39  1  0.65122657  0.35778689  0.76221851  1
  H  H40  1  0.77730744  0.32407888  0.77577073  1
  H  H41  1  0.68442327  0.27321960  0.86178462  1
  H  H42  1  0.72710207  0.95395307  0.65946800  1
  H  H43  1  0.83689632  0.98693108  0.57073737  1
  H  H44  1  0.85465821  0.90659847  0.68783713  1
  H  H45  1  0.63210439  0.69639745  0.27405604  1
  H  H46  1  0.69403762  0.58035517  0.31658616  1
  H  H47  1  0.85591199  0.63998168  0.22651147  1
  H  H48  1  0.79965257  0.75114607  0.18534315  1
  H  H49  1  0.75926430  0.63817287  0.14002470  1
  H  H50  1  0.75975708  0.57526934  0.51246355  1
  H  H51  1  0.84858681  0.61518664  0.69928721  1
  H  H52  1  0.87347988  0.74464145  0.73468886  1
  H  H53  1  0.66743143  0.63617371  0.76380872  1
  H  H54  1  0.68859023  0.75862767  0.79691784  1
  H  H55  1  0.75263946  0.66423966  0.86047551  1
  Pb  Pb56  1  1.00525563  0.00738564  0.00732028  1
  Pb  Pb57  1  0.98622453  0.48542286  0.99221619  1
  Pb  Pb58  1  0.51159849  -0.00027762  0.99315517  1
  Pb  Pb59  1  0.49651784  0.49682056  0.99431589  1
  C  C60  1  0.28225925  0.08230576  0.36959182  1
  C  C61  1  0.26553681  0.17401887  0.44045562  1
  C  C62  1  0.23453333  0.29189550  0.59870256  1
  C  C63  1  0.20862950  0.33751954  0.70747605  1
  C  C64  1  0.24991481  0.34478358  0.49995160  1
  C  C65  1  0.26676870  0.27801098  0.40921860  1
  C  C66  1  0.28983616  0.31575945  0.29411237  1
  C  C67  1  0.07853992  0.71640073  0.36941891  1
  C  C68  1  0.16893922  0.73174954  0.44071443  1
  C  C69  1  0.28135325  0.76850353  0.59823475  1
  C  C70  1  0.32498474  0.80521672  0.70142689  1
  C  C71  1  0.33904505  0.74738189  0.50308552  1
  C  C72  1  0.27536442  0.72735397  0.41263086  1
  C  C73  1  0.31804072  0.70011395  0.30127821  1
  C  C74  1  0.91850020  0.18921687  0.62303480  1
  C  C75  1  0.82677508  0.21573240  0.55606658  1
  C  C76  1  0.70990003  0.25810707  0.40221462  1
  C  C77  1  0.66532430  0.28563915  0.29490304  1
  C  C78  1  0.65559641  0.24785713  0.50202328  1
  C  C79  1  0.72197363  0.22502104  0.59040860  1
  C  C80  1  0.68379114  0.20617077  0.70643091  1
  C  C81  1  0.80106051  0.92445928  0.62169001  1
  C  C82  1  0.78149439  0.83137430  0.55572225  1
  C  C83  1  0.73849870  0.71097755  0.40677015  1
  C  C84  1  0.70548788  0.66382514  0.30382723  1
  C  C85  1  0.76033845  0.65946918  0.50347949  1
  C  C86  1  0.78417062  0.72795909  0.58906067  1
  C  C87  1  0.81534809  0.69357114  0.70032844  1
  S  S88  1  0.23983472  0.15950573  0.57966171  1
  S  S89  1  0.14824238  0.76377456  0.57599062  1
  S  S90  1  0.84267996  0.23998160  0.41734390  1
  S  S91  1  0.74773827  0.84347303  0.42134610  1
  I  I92  1  0.26908948  0.95527159  0.01141367  1
  I  I93  1  0.24502641  0.52656763  0.99282217  1
  I  I94  1  0.76589151  0.07498745  0.97268666  1
  I  I95  1  0.74026044  0.45063731  0.01977144  1
  I  I96  1  0.07426441  0.23923321  0.98217711  1
  I  I97  1  0.94520596  0.72628560  0.97987055  1
  I  I98  1  0.46129183  0.24584385  0.01153957  1
  I  I99  1  0.53213954  0.74155473  0.99451736  1
  I  I100  1  0.06869090  0.96178911  0.76157706  1
  I  I101  1  -0.00081971  0.00722222  0.26824315  1
  I  I102  1  0.95030782  0.45127134  0.74052518  1
  I  I103  1  0.97345345  0.47001033  0.25951031  1
  I  I104  1  0.51659959  0.98963874  0.74020700  1
  I  I105  1  0.53905930  0.96497779  0.26005135  1
  I  I106  1  0.51113179  0.49574811  0.71546183  1
  I  I107  1  0.49562648  0.49689333  0.24470066  1
  N  N108  1  0.28913794  0.31480134  0.79268698  1
  N  N109  1  0.19854327  0.30892387  0.21970381  1
  N  N110  1  0.29232596  0.74317918  0.80394500  1
  N  N111  1  0.32712942  0.79087033  0.22144491  1
  N  N112  1  0.68070229  0.20381709  0.20900441  1
  N  N113  1  0.70086026  0.29610277  0.78095058  1
  N  N114  1  0.78491239  0.67531751  0.20858809  1
  N  N115  1  0.72482048  0.68808905  0.78523505  1
