# generated using pymatgen
data_H9PbC5I4N3
_symmetry_space_group_name_H-M   'P 1'
_cell_length_a   12.22496221
_cell_length_b   12.19496716
_cell_length_c   10.58728923
_cell_angle_alpha   88.94197756
_cell_angle_beta   91.06111374
_cell_angle_gamma   90.25111494
_symmetry_Int_Tables_number   1
_chemical_formula_structural   H9PbC5I4N3
_chemical_formula_sum   'H36 Pb4 C20 I16 N12'
_cell_volume   1577.83235367
_cell_formula_units_Z   4
loop_
 _symmetry_equiv_pos_site_id
 _symmetry_equiv_pos_as_xyz
  1  'x, y, z'
loop_
 _atom_site_type_symbol
 _atom_site_label
 _atom_site_symmetry_multiplicity
 _atom_site_fract_x
 _atom_site_fract_y
 _atom_site_fract_z
 _atom_site_occupancy
  H  H0  1  0.17908489  0.14434779  0.72498435  1
  H  H1  1  0.31613007  0.14369207  0.71698369  1
  H  H2  1  0.25607957  0.21331002  0.83207604  1
  H  H3  1  0.17435026  0.34461454  0.68221581  1
  H  H4  1  0.31909252  0.34551441  0.68232285  1
  H  H5  1  0.25324400  0.43968953  0.45272470  1
  H  H6  1  0.25817720  0.38033975  0.22390047  1
  H  H7  1  0.25446195  0.19123364  0.18453051  1
  H  H8  1  0.23967628  0.05236061  0.34022652  1
  H  H9  1  0.15650109  0.82650882  0.72732487  1
  H  H10  1  0.14498729  0.68934951  0.71234168  1
  H  H11  1  0.22111205  0.73829716  0.83122758  1
  H  H12  1  0.34966566  0.82442402  0.67993426  1
  H  H13  1  0.34844309  0.67842589  0.68417035  1
  H  H14  1  0.43938720  0.75232061  0.45671158  1
  H  H15  1  0.37720334  0.74032712  0.22643274  1
  H  H16  1  0.19015604  0.73117634  0.18305586  1
  H  H17  1  0.05141958  0.74091963  0.33535699  1
  H  H18  1  0.86049144  0.31128049  0.28740503  1
  H  H19  1  0.84600888  0.17472640  0.26876269  1
  H  H20  1  0.78381169  0.26607884  0.16713934  1
  H  H21  1  0.65591290  0.32446055  0.31353425  1
  H  H22  1  0.65414372  0.17848940  0.31789126  1
  H  H23  1  0.56333968  0.25192920  0.54039320  1
  H  H24  1  0.62392221  0.26105144  0.77084482  1
  H  H25  1  0.81235788  0.26614048  0.81627655  1
  H  H26  1  0.95040730  0.25846256  0.66555829  1
  H  H27  1  0.67309214  0.85006316  0.28131397  1
  H  H28  1  0.81003355  0.85653140  0.28025909  1
  H  H29  1  0.74261308  0.78291176  0.17043325  1
  H  H30  1  0.67896019  0.64939664  0.32309450  1
  H  H31  1  0.82360684  0.65574229  0.32097724  1
  H  H32  1  0.74889702  0.55918681  0.55259223  1
  H  H33  1  0.74849348  0.61951074  0.78120467  1
  H  H34  1  0.74986693  0.80911121  0.81903709  1
  H  H35  1  0.75493464  0.94723603  0.66206122  1
  Pb  Pb36  1  0.00368739  0.98963755  -0.00084226  1
  Pb  Pb37  1  0.00978894  0.49821856  0.00042300  1
  Pb  Pb38  1  0.50412575  0.00617859  0.99794755  1
  Pb  Pb39  1  0.50440924  0.49874160  -0.00071015  1
  C  C40  1  0.24637558  0.29506270  0.65833285  1
  C  C41  1  0.24528607  0.26958454  0.52060369  1
  C  C42  1  0.24989129  0.35343814  0.42858939  1
  C  C43  1  0.25198415  0.32296898  0.30356148  1
  C  C44  1  0.24229773  0.13744498  0.36987510  1
  C  C45  1  0.29893621  0.75156840  0.65834622  1
  C  C46  1  0.27025653  0.75017096  0.52057916  1
  C  C47  1  0.35303765  0.74933742  0.43054680  1
  C  C48  1  0.32125863  0.74293566  0.30521875  1
  C  C49  1  0.13664926  0.74261889  0.36690116  1
  C  C50  1  0.70511688  0.25119499  0.33966748  1
  C  C51  1  0.73292092  0.25237646  0.47772392  1
  C  C52  1  0.64961083  0.25375543  0.56710269  1
  C  C53  1  0.68065386  0.25867799  0.69291857  1
  C  C54  1  0.86550480  0.25766879  0.63280610  1
  C  C55  1  0.75003943  0.70265433  0.34550042  1
  C  C56  1  0.75185016  0.72910326  0.48313352  1
  C  C57  1  0.75070369  0.64563574  0.57596270  1
  C  C58  1  0.75055505  0.67664249  0.70089845  1
  C  C59  1  0.75396364  0.86198131  0.63300387  1
  I  I60  1  0.25320052  0.95465435  0.05933036  1
  I  I61  1  0.25448810  0.58893813  0.00843698  1
  I  I62  1  0.75349605  0.04513360  0.94161426  1
  I  I63  1  0.75176149  0.42112579  0.99155506  1
  I  I64  1  0.04476180  0.24508063  0.96443584  1
  I  I65  1  0.92524014  0.74079254  0.02038619  1
  I  I66  1  0.40985328  0.25588234  0.00718523  1
  I  I67  1  0.56576133  0.75373860  0.98514814  1
  I  I68  1  0.03641273  0.98831918  0.69599550  1
  I  I69  1  0.96052686  0.00343453  0.29908155  1
  I  I70  1  0.01635077  0.52478290  0.69744272  1
  I  I71  1  0.99187329  0.47561978  0.30363256  1
  I  I72  1  0.47244045  0.01834737  0.69475268  1
  I  I73  1  0.52860134  0.99007505  0.30275046  1
  I  I74  1  0.49352115  0.49782787  0.69631996  1
  I  I75  1  0.50660319  0.50011419  0.30301781  1
  N  N76  1  0.24869362  0.19340962  0.73742403  1
  N  N77  1  0.24821047  0.21508084  0.27716787  1
  N  N78  1  0.24101257  0.16256880  0.49019533  1
  N  N79  1  0.19975807  0.75237483  0.73694454  1
  N  N80  1  0.21315278  0.73925333  0.27674196  1
  N  N81  1  0.16310641  0.74797047  0.48793191  1
  N  N82  1  0.80457998  0.24983256  0.26119574  1
  N  N83  1  0.78853447  0.26086491  0.72248252  1
  N  N84  1  0.83988686  0.25348517  0.51143831  1
  N  N85  1  0.74359901  0.80347895  0.26496701  1
  N  N86  1  0.75207460  0.78472332  0.72634296  1
  N  N87  1  0.75356844  0.83629273  0.51269251  1
