# generated using pymatgen
data_H12PbC6S(I2N)2
_symmetry_space_group_name_H-M   'P 1'
_cell_length_a   13.01372972
_cell_length_b   12.98352414
_cell_length_c   10.99193493
_cell_angle_alpha   89.30646720
_cell_angle_beta   89.69689402
_cell_angle_gamma   89.97099760
_symmetry_Int_Tables_number   1
_chemical_formula_structural   H12PbC6S(I2N)2
_chemical_formula_sum   'H48 Pb4 C24 S4 I16 N8'
_cell_volume   1857.07988051
_cell_formula_units_Z   4
loop_
 _symmetry_equiv_pos_site_id
 _symmetry_equiv_pos_as_xyz
  1  'x, y, z'
loop_
 _atom_site_type_symbol
 _atom_site_label
 _atom_site_symmetry_multiplicity
 _atom_site_fract_x
 _atom_site_fract_y
 _atom_site_fract_z
 _atom_site_occupancy
  H  H0  1  0.34503551  0.14399813  0.76424439  1
  H  H1  1  0.23453639  0.19627001  0.81271635  1
  H  H2  1  0.25104189  0.07001449  0.81914572  1
  H  H3  1  0.26249122  0.05622476  0.60239804  1
  H  H4  1  0.14175708  0.10433778  0.65239699  1
  H  H5  1  0.21132903  0.34289253  0.69902275  1
  H  H6  1  0.24752575  0.47656988  0.52364985  1
  H  H7  1  0.35795372  0.09506488  0.37296745  1
  H  H8  1  0.22845197  0.05672343  0.39978255  1
  H  H9  1  0.18143130  0.15551291  0.21756815  1
  H  H10  1  0.30528412  0.18533009  0.18972925  1
  H  H11  1  0.26860605  0.06397470  0.19033079  1
  H  H12  1  0.14427610  0.65435558  0.76522626  1
  H  H13  1  0.19693625  0.76466670  0.81185519  1
  H  H14  1  0.07085563  0.74902129  0.81822908  1
  H  H15  1  0.05671911  0.73763498  0.60136391  1
  H  H16  1  0.10503073  0.85833115  0.64939832  1
  H  H17  1  0.34316867  0.78902658  0.69854848  1
  H  H18  1  0.47615387  0.75285706  0.52444488  1
  H  H19  1  0.09554127  0.64060941  0.37419841  1
  H  H20  1  0.05688219  0.77033050  0.39831265  1
  H  H21  1  0.15598848  0.81795853  0.21647812  1
  H  H22  1  0.18574853  0.69392493  0.19114745  1
  H  H23  1  0.06468592  0.73074883  0.18930912  1
  H  H24  1  0.84348504  0.17020675  0.22666369  1
  H  H25  1  0.81251926  0.29142739  0.18236527  1
  H  H26  1  0.93365766  0.25516354  0.18589810  1
  H  H27  1  0.94280682  0.23911529  0.39761656  1
  H  H28  1  0.89508429  0.36238695  0.35586267  1
  H  H29  1  0.65643253  0.29355469  0.30197947  1
  H  H30  1  0.52413201  0.26301761  0.47959021  1
  H  H31  1  0.90577969  0.14587953  0.63542894  1
  H  H32  1  0.94411980  0.27437993  0.59934176  1
  H  H33  1  0.85217350  0.33360182  0.77552887  1
  H  H34  1  0.81010658  0.21500296  0.80961017  1
  H  H35  1  0.93426226  0.24057224  0.81390255  1
  H  H36  1  0.82891426  0.84332141  0.22537797  1
  H  H37  1  0.70827632  0.81182663  0.18364830  1
  H  H38  1  0.74396913  0.93337523  0.18451600  1
  H  H39  1  0.75961451  0.94333898  0.39625761  1
  H  H40  1  0.63670030  0.89527689  0.35715808  1
  H  H41  1  0.70623537  0.65652515  0.30344969  1
  H  H42  1  0.73787646  0.52359448  0.48048485  1
  H  H43  1  0.85376771  0.90559882  0.63271267  1
  H  H44  1  0.72554418  0.94417955  0.59907159  1
  H  H45  1  0.66644583  0.85102116  0.77645704  1
  H  H46  1  0.78474209  0.80905244  0.80849644  1
  H  H47  1  0.75919368  0.93345357  0.81313626  1
  Pb  Pb48  1  0.00567597  0.99930156  0.03446122  1
  Pb  Pb49  1  0.99275722  0.50178147  0.98316723  1
  Pb  Pb50  1  0.51325260  0.99780225  0.98242804  1
  Pb  Pb51  1  0.46761305  0.48431182  0.99158224  1
  C  C52  1  0.22336417  0.12371309  0.64010032  1
  C  C53  1  0.23823823  0.21851605  0.56323958  1
  C  C54  1  0.23052347  0.32123879  0.60618993  1
  C  C55  1  0.24822396  0.39339017  0.51618071  1
  C  C56  1  0.25885923  0.21556489  0.43937052  1
  C  C57  1  0.27732472  0.12053815  0.36788428  1
  C  C58  1  0.12421472  0.77651425  0.63878160  1
  C  C59  1  0.21872292  0.76151381  0.56284538  1
  C  C60  1  0.32130740  0.76985079  0.60600697  1
  C  C61  1  0.39312653  0.75225785  0.51666717  1
  C  C62  1  0.21553175  0.74050066  0.43954834  1
  C  C63  1  0.12070195  0.72149470  0.36790156  1
  C  C64  1  0.87547328  0.28004138  0.36184180  1
  C  C65  1  0.78117365  0.26228049  0.43697757  1
  C  C66  1  0.67840228  0.27204138  0.39441555  1
  C  C67  1  0.60708805  0.25706362  0.48540915  1
  C  C68  1  0.78522285  0.24249186  0.56112589  1
  C  C69  1  0.88048064  0.22671377  0.63416954  1
  C  C70  1  0.71889633  0.87579922  0.36188567  1
  C  C71  1  0.73716536  0.78132915  0.43726735  1
  C  C72  1  0.72812988  0.67846793  0.39516061  1
  C  C73  1  0.74390401  0.60669999  0.48593607  1
  C  C74  1  0.75745052  0.78504607  0.56083462  1
  C  C75  1  0.77313591  0.88027624  0.63315423  1
  S  S76  1  0.27329609  0.33776922  0.37918365  1
  S  S77  1  0.33737638  0.72653146  0.38003808  1
  S  S78  1  0.66369416  0.23272314  0.62261020  1
  S  S79  1  0.76836750  0.66306203  0.62235767  1
  I  I80  1  0.23897435  0.92625355  0.00400030  1
  I  I81  1  0.24299132  0.58625561  0.00432985  1
  I  I82  1  0.75456775  0.07363014  0.99966153  1
  I  I83  1  0.77111240  0.41364086  -0.00052057  1
  I  I84  1  0.07463170  0.23675956  0.00361429  1
  I  I85  1  0.92850624  0.75219975  1.00013649  1
  I  I86  1  0.41273348  0.24387646  0.00281391  1
  I  I87  1  0.58610734  0.77056716  0.00140553  1
  I  I88  1  0.99543574  0.99831063  0.75908995  1
  I  I89  1  0.99885769  0.99861297  0.33272465  1
  I  I90  1  0.00649243  0.49494426  0.69056211  1
  I  I91  1  0.00951960  0.49666711  0.26003085  1
  I  I92  1  0.49543537  0.99491465  0.69004852  1
  I  I93  1  0.50010418  0.00602361  0.25957150  1
  I  I94  1  0.50769372  0.50281748  0.71586348  1
  I  I95  1  0.51832673  0.50441669  0.26598723  1
  N  N96  1  0.26578531  0.13515816  0.76594318  1
  N  N97  1  0.25619741  0.13309792  0.23475640  1
  N  N98  1  0.13562681  0.73384923  0.76547059  1
  N  N99  1  0.13343752  0.74299202  0.23451012  1
  N  N100  1  0.86447333  0.24655401  0.23257769  1
  N  N101  1  0.86773819  0.25575805  0.76496346  1
  N  N102  1  0.75267946  0.86434333  0.23216567  1
  N  N103  1  0.74409737  0.86698736  0.76455129  1
