# generated using pymatgen
data_H18PbC13S(I2N)2
_symmetry_space_group_name_H-M   'P 1'
_cell_length_a   12.88020764
_cell_length_b   12.32247009
_cell_length_c   16.48746912
_cell_angle_alpha   87.93496248
_cell_angle_beta   89.17186554
_cell_angle_gamma   87.56050948
_symmetry_Int_Tables_number   1
_chemical_formula_structural   H18PbC13S(I2N)2
_chemical_formula_sum   'H72 Pb4 C52 S4 I16 N8'
_cell_volume   2612.53651573
_cell_formula_units_Z   4
loop_
 _symmetry_equiv_pos_site_id
 _symmetry_equiv_pos_as_xyz
  1  'x, y, z'
loop_
 _atom_site_type_symbol
 _atom_site_label
 _atom_site_symmetry_multiplicity
 _atom_site_fract_x
 _atom_site_fract_y
 _atom_site_fract_z
 _atom_site_occupancy
  H  H0  1  0.34636792  0.05801733  0.49591373  1
  H  H1  1  0.21345786  0.06323272  0.52442491  1
  H  H2  1  0.30789623  0.00969050  0.59456008  1
  H  H3  1  0.33883438  0.12544038  0.69980747  1
  H  H4  1  0.39345853  0.38752305  0.79146398  1
  H  H5  1  0.40905579  0.24363091  0.80207382  1
  H  H6  1  0.28209471  0.32016574  0.89393413  1
  H  H7  1  0.22724779  0.23304125  0.83488395  1
  H  H8  1  0.20364071  0.36607680  0.81822832  1
  H  H9  1  0.32479434  0.47407982  0.66425750  1
  H  H10  1  0.28370692  0.45384748  0.51961859  1
  H  H11  1  0.08998582  0.27154040  0.45745761  1
  H  H12  1  0.07744331  0.23124535  0.29971095  1
  H  H13  1  0.19997059  0.17906793  0.17915228  1
  H  H14  1  0.33559101  0.15867239  0.19656916  1
  H  H15  1  0.30806475  0.30802133  0.10306176  1
  H  H16  1  0.21892523  0.37092552  0.16517353  1
  H  H17  1  0.34703517  0.36085160  0.18816564  1
  H  H18  1  0.07211149  0.65882370  0.49061285  1
  H  H19  1  0.05745305  0.79570537  0.51816761  1
  H  H20  1  0.02257809  0.69009141  0.58868442  1
  H  H21  1  0.13452464  0.67315924  0.69806885  1
  H  H22  1  0.38924696  0.60321435  0.79198753  1
  H  H23  1  0.25127105  0.59614129  0.80270339  1
  H  H24  1  0.31890152  0.71917930  0.89271463  1
  H  H25  1  0.24172780  0.78968953  0.82785311  1
  H  H26  1  0.37022254  0.79746043  0.81859512  1
  H  H27  1  0.46645289  0.67028957  0.66330503  1
  H  H28  1  0.44056887  0.71551385  0.51569264  1
  H  H29  1  0.24838552  0.92792148  0.44179909  1
  H  H30  1  0.21776562  0.93453928  0.28351618  1
  H  H31  1  0.18177955  0.80263620  0.16860246  1
  H  H32  1  0.17630682  0.66014659  0.19214110  1
  H  H33  1  0.31806233  0.69667362  0.10052101  1
  H  H34  1  0.37009793  0.78396984  0.16480234  1
  H  H35  1  0.36796888  0.64967965  0.18801498  1
  H  H36  1  0.91932022  0.15703360  0.51297730  1
  H  H37  1  0.92568461  0.29312265  0.47673022  1
  H  H38  1  0.96856721  0.18464595  0.41348107  1
  H  H39  1  0.86346828  0.16231879  0.30549696  1
  H  H40  1  0.61830048  0.08561164  0.21382304  1
  H  H41  1  0.75676140  0.07751138  0.20620472  1
  H  H42  1  0.68372590  0.19525778  0.10508519  1
  H  H43  1  0.75317995  0.26888387  0.16501726  1
  H  H44  1  0.62481357  0.27919696  0.17345602  1
  H  H45  1  0.53109900  0.16516123  0.33335503  1
  H  H46  1  0.54639494  0.22107559  0.47641369  1
  H  H47  1  0.73268008  0.42809762  0.54540943  1
  H  H48  1  0.77620796  0.42876611  0.70140310  1
  H  H49  1  0.82197008  0.28885064  0.82167058  1
  H  H50  1  0.82994171  0.14778324  0.80170044  1
  H  H51  1  0.69355770  0.18004750  0.89604246  1
  H  H52  1  0.63858096  0.28367346  0.83742620  1
  H  H53  1  0.63531045  0.15243769  0.81035769  1
  H  H54  1  0.84133164  0.93572098  0.51055097  1
  H  H55  1  0.70931224  0.94456220  0.48331970  1
  H  H56  1  0.80526641  0.98876577  0.41260308  1
  H  H57  1  0.84408545  0.87417273  0.30660960  1
  H  H58  1  0.91031970  0.61582778  0.21096234  1
  H  H59  1  0.91413539  0.76035086  0.20283313  1
  H  H60  1  0.80154996  0.70017341  0.10810997  1
  H  H61  1  0.72540421  0.76352303  0.17729584  1
  H  H62  1  0.73067145  0.62763762  0.17534723  1
  H  H63  1  0.82859746  0.52615320  0.33519534  1
  H  H64  1  0.77899787  0.54687182  0.48018531  1
  H  H65  1  0.58125484  0.75614869  0.55137051  1
  H  H66  1  0.57422528  0.78898770  0.71000878  1
  H  H67  1  0.69884825  0.81320144  0.82898461  1
  H  H68  1  0.83266424  0.83186075  0.80389828  1
  H  H69  1  0.81887677  0.68336480  0.89758272  1
  H  H70  1  0.73507799  0.61843782  0.83844544  1
  H  H71  1  0.86027846  0.63227915  0.81059219  1
  Pb  Pb72  1  0.00798481  0.99192063  0.99355093  1
  Pb  Pb73  1  0.02546321  0.48901496  0.99815778  1
  Pb  Pb74  1  0.49510958  0.98793704  0.99881001  1
  Pb  Pb75  1  0.53582218  0.48743528  0.01064478  1
  C  C76  1  0.29240744  0.07268959  0.54706416  1
  C  C77  1  0.30241562  0.18455961  0.57878333  1
  C  C78  1  0.32504706  0.19764940  0.66035704  1
  C  C79  1  0.33230057  0.30080090  0.69213660  1
  C  C80  1  0.35686124  0.31084584  0.78011954  1
  C  C81  1  0.31807635  0.39315408  0.64104098  1
  C  C82  1  0.29573927  0.38189538  0.55940177  1
  C  C83  1  0.28733413  0.27863713  0.52781459  1
  C  C84  1  0.25594725  0.26735546  0.44277724  1
  C  C85  1  0.15565969  0.26127981  0.41617091  1
  C  C86  1  0.14923199  0.23935310  0.33260511  1
  C  C87  1  0.24536600  0.22951048  0.29523672  1
  C  C88  1  0.26746310  0.21325901  0.20746397  1
  C  C89  1  0.07882179  0.71314686  0.54156166  1
  C  C90  1  0.18644785  0.70692725  0.57538004  1
  C  C91  1  0.20188217  0.68562611  0.65831952  1
  C  C92  1  0.30168524  0.67506444  0.69100153  1
  C  C93  1  0.31443458  0.64652877  0.77968146  1
  C  C94  1  0.38840663  0.68430709  0.63939263  1
  C  C95  1  0.37410396  0.70783010  0.55684963  1
  C  C96  1  0.27428317  0.72085565  0.52443901  1
  C  C97  1  0.26051080  0.75234598  0.43773166  1
  C  C98  1  0.24693723  0.85658675  0.40505380  1
  C  C99  1  0.23039548  0.86012807  0.32029684  1
  C  C100  1  0.23072435  0.75830921  0.28831281  1
  C  C101  1  0.22030737  0.73317173  0.20130619  1
  C  C102  1  0.91020579  0.21043755  0.45842309  1
  C  C103  1  0.80399909  0.20524387  0.42355410  1
  C  C104  1  0.79373563  0.17828180  0.34261859  1
  C  C105  1  0.69621308  0.16422666  0.30951299  1
  C  C106  1  0.68920595  0.12946576  0.22373860  1
  C  C107  1  0.60716909  0.17883329  0.35807363  1
  C  C108  1  0.61575563  0.20872798  0.43843033  1
  C  C109  1  0.71359338  0.22209723  0.47181502  1
  C  C110  1  0.72556478  0.25299338  0.55693678  1
  C  C111  1  0.73922902  0.35557044  0.58482197  1
  C  C112  1  0.76256440  0.35587687  0.66846521  1
  C  C113  1  0.76631137  0.25313912  0.70465337  1
  C  C114  1  0.78298059  0.22368915  0.79199009  1
  C  C115  1  0.78829313  0.92702635  0.45969814  1
  C  C116  1  0.79858819  0.81547454  0.42604790  1
  C  C117  1  0.82668032  0.80253414  0.34469329  1
  C  C118  1  0.83643542  0.69987054  0.31104991  1
  C  C119  1  0.86688535  0.69217037  0.22341200  1
  C  C120  1  0.81924581  0.60700532  0.36005197  1
  C  C121  1  0.79177005  0.61859973  0.44148027  1
  C  C122  1  0.78054179  0.72147135  0.47498928  1
  C  C123  1  0.74793531  0.73371332  0.56073908  1
  C  C124  1  0.64850598  0.75277578  0.59054358  1
  C  C125  1  0.64463630  0.77028015  0.67511584  1
  C  C126  1  0.74139635  0.76561625  0.70970885  1
  C  C127  1  0.76684806  0.77893026  0.79635950  1
  S  S128  1  0.34297957  0.24777989  0.36376451  1
  S  S129  1  0.25157025  0.65801831  0.36335337  1
  S  S130  1  0.74152808  0.15627355  0.63480943  1
  S  S131  1  0.83690947  0.74011919  0.63767506  1
  I  I132  1  0.25207823  0.95770772  0.97801885  1
  I  I133  1  0.27151033  0.53891131  0.99246628  1
  I  I134  1  0.73982850  0.03941873  0.00752227  1
  I  I135  1  0.77236022  0.45104920  0.04425635  1
  I  I136  1  1.02624183  0.24158821  0.96792956  1
  I  I137  1  0.94275477  0.73807391  0.00560813  1
  I  I138  1  0.45158882  0.24567037  0.99780528  1
  I  I139  1  0.54206026  0.73717984  0.98567242  1
  I  I140  1  1.00759281  0.96794182  0.80045583  1
  I  I141  1  0.99502099  1.00000217  0.18955906  1
  I  I142  1  0.03155782  0.50041591  0.79836878  1
  I  I143  1  0.05106998  0.45568983  0.18866532  1
  I  I144  1  0.50245279  0.99516462  0.80084900  1
  I  I145  1  0.46774597  0.94613026  0.19109087  1
  I  I146  1  0.58752681  0.48882351  0.82024628  1
  I  I147  1  0.50861885  0.47563610  0.20972285  1
  N  N148  1  0.26115045  0.30732764  0.83466595  1
  N  N149  1  0.28663820  0.31999648  0.16305170  1
  N  N150  1  0.31116986  0.74488418  0.83229348  1
  N  N151  1  0.32573512  0.71457716  0.16096225  1
  N  N152  1  0.68702574  0.22476072  0.16357726  1
  N  N153  1  0.68068157  0.20954226  0.83663650  1
  N  N154  1  0.77363800  0.69619892  0.16821222  1
  N  N155  1  0.79639862  0.67116796  0.83819035  1
