# generated using pymatgen
data_H18PbC13S(I2N)2
_symmetry_space_group_name_H-M   'P 1'
_cell_length_a   13.01344858
_cell_length_b   12.50941622
_cell_length_c   16.77175684
_cell_angle_alpha   91.35463430
_cell_angle_beta   89.49952994
_cell_angle_gamma   90.59524796
_symmetry_Int_Tables_number   1
_chemical_formula_structural   H18PbC13S(I2N)2
_chemical_formula_sum   'H72 Pb4 C52 S4 I16 N8'
_cell_volume   2729.27634030
_cell_formula_units_Z   4
loop_
 _symmetry_equiv_pos_site_id
 _symmetry_equiv_pos_as_xyz
  1  'x, y, z'
loop_
 _atom_site_type_symbol
 _atom_site_label
 _atom_site_symmetry_multiplicity
 _atom_site_fract_x
 _atom_site_fract_y
 _atom_site_fract_z
 _atom_site_occupancy
  H  H0  1  0.21091872  0.41900658  0.25611827  1
  H  H1  1  0.09251803  0.37492884  0.29557916  1
  H  H2  1  0.17058815  0.46603182  0.35129213  1
  H  H3  1  0.22404470  0.38343079  0.46422774  1
  H  H4  1  0.35440701  0.41278332  0.55536435  1
  H  H5  1  0.25845165  0.08690223  0.77205787  1
  H  H6  1  0.38256713  0.13892583  0.79542953  1
  H  H7  1  0.25251107  0.18271880  0.89273951  1
  H  H8  1  0.18991519  0.25980570  0.82795819  1
  H  H9  1  0.30723067  0.29358186  0.85784160  1
  H  H10  1  0.26281675  0.08672302  0.61383348  1
  H  H11  1  0.33269930  0.05908493  0.46268923  1
  H  H12  1  0.29853195  0.04522022  0.31800101  1
  H  H13  1  0.21200139  0.11220620  0.20227081  1
  H  H14  1  0.15862204  0.24132219  0.20228726  1
  H  H15  1  0.33769834  0.31283278  0.18085123  1
  H  H16  1  0.37852625  0.18487969  0.17436018  1
  H  H17  1  0.29495579  0.22768061  0.10856848  1
  H  H18  1  0.41961972  0.77082647  0.24965026  1
  H  H19  1  0.38789862  0.90091128  0.28306472  1
  H  H20  1  0.46701700  0.82093760  0.34237438  1
  H  H21  1  0.38551381  0.77174597  0.45823570  1
  H  H22  1  0.40271808  0.62233847  0.53979598  1
  H  H23  1  0.10191743  0.71817109  0.77486478  1
  H  H24  1  0.15622960  0.59314224  0.79542238  1
  H  H25  1  0.19495166  0.72937722  0.89321950  1
  H  H26  1  0.26332282  0.80030726  0.82745976  1
  H  H27  1  0.30433302  0.67824533  0.85236124  1
  H  H28  1  0.10472299  0.74189438  0.62132653  1
  H  H29  1  0.06776377  0.67247736  0.46624005  1
  H  H30  1  0.05437553  0.70826529  0.32235315  1
  H  H31  1  0.12313200  0.80082739  0.20597130  1
  H  H32  1  0.25382744  0.83884535  0.19922856  1
  H  H33  1  0.29055755  0.63983172  0.18236336  1
  H  H34  1  0.16213177  0.62177619  0.17345781  1
  H  H35  1  0.22641575  0.69866524  0.10928548  1
  H  H36  1  0.58969440  0.26668976  0.74570813  1
  H  H37  1  0.63832655  0.39757615  0.73285814  1
  H  H38  1  0.55683410  0.33781254  0.66008199  1
  H  H39  1  0.62961318  0.26872791  0.54481452  1
  H  H40  1  0.61999195  0.09504274  0.46187733  1
  H  H41  1  0.90301898  0.22873532  0.22564745  1
  H  H42  1  0.84743189  0.10596914  0.19493858  1
  H  H43  1  0.80056528  0.24456829  0.11069155  1
  H  H44  1  0.74538784  0.31716864  0.18440983  1
  H  H45  1  0.69274856  0.19865759  0.15696834  1
  H  H46  1  0.89998441  0.25490720  0.38003940  1
  H  H47  1  0.94461327  0.16695352  0.53242375  1
  H  H48  1  0.96123434  0.20646242  0.67741182  1
  H  H49  1  0.89612319  0.29491405  0.79753173  1
  H  H50  1  0.76951487  0.34345049  0.80438262  1
  H  H51  1  0.71019167  0.15285034  0.81770960  1
  H  H52  1  0.83502569  0.11693784  0.81465258  1
  H  H53  1  0.79454271  0.19652370  0.88893570  1
  H  H54  1  0.70860231  0.58094346  0.74416951  1
  H  H55  1  0.58953520  0.62573514  0.70921627  1
  H  H56  1  0.66472921  0.53709912  0.64909331  1
  H  H57  1  0.72230487  0.61724520  0.53806729  1
  H  H58  1  0.85722796  0.58857989  0.44878763  1
  H  H59  1  0.76878970  0.91267113  0.23262941  1
  H  H60  1  0.88413259  0.85054501  0.20124588  1
  H  H61  1  0.74784341  0.81964937  0.10977427  1
  H  H62  1  0.67498695  0.75602382  0.17702877  1
  H  H63  1  0.78332487  0.70118638  0.14409403  1
  H  H64  1  0.76468324  0.91013292  0.38598879  1
  H  H65  1  0.83308772  0.94302220  0.53696167  1
  H  H66  1  0.79567733  0.95883149  0.68121767  1
  H  H67  1  0.69960838  0.88909589  0.79727545  1
  H  H68  1  0.65885625  0.75394034  0.80059086  1
  H  H69  1  0.84146337  0.70412501  0.82074396  1
  H  H70  1  0.87356207  0.83554527  0.81867383  1
  H  H71  1  0.79579163  0.79270005  0.89061891  1
  Pb  Pb72  1  0.01312997  1.00154924  0.99170722  1
  Pb  Pb73  1  0.98498900  0.50058130  0.97938231  1
  Pb  Pb74  1  0.51093310  0.00796582  0.98051367  1
  Pb  Pb75  1  0.49983644  0.51928277  0.02500645  1
  C  C76  1  0.17234366  0.39518934  0.31147442  1
  C  C77  1  0.22328184  0.30314605  0.35025643  1
  C  C78  1  0.24343165  0.30966621  0.43171105  1
  C  C79  1  0.28444142  0.22454532  0.47391633  1
  C  C80  1  0.30542166  0.24252214  0.55951669  1
  C  C81  1  0.33715513  0.34168103  0.58907822  1
  C  C82  1  0.30840186  0.21390295  0.69707395  1
  C  C83  1  0.30508971  0.16048865  0.77548122  1
  C  C84  1  0.28965040  0.16890250  0.62265386  1
  C  C85  1  0.30285830  0.12802032  0.43193533  1
  C  C86  1  0.28418476  0.12059248  0.35007919  1
  C  C87  1  0.24652524  0.20734814  0.30799524  1
  C  C88  1  0.22612757  0.19592523  0.21988153  1
  C  C89  1  0.39985625  0.81889309  0.30323557  1
  C  C90  1  0.30709991  0.77583645  0.34644304  1
  C  C91  1  0.31292813  0.75587675  0.42778002  1
  C  C92  1  0.22915722  0.71706299  0.47239807  1
  C  C93  1  0.24676028  0.68966384  0.55621041  1
  C  C94  1  0.33846773  0.64426311  0.57833319  1
  C  C95  1  0.22370525  0.67456325  0.69464524  1
  C  C96  1  0.17440414  0.67426246  0.77534006  1
  C  C97  1  0.18072313  0.70635439  0.62405039  1
  C  C98  1  0.13489236  0.70174831  0.43359786  1
  C  C99  1  0.12766177  0.72152168  0.35230660  1
  C  C100  1  0.21263095  0.75662820  0.30775057  1
  C  C101  1  0.20131708  0.77608398  0.22003882  1
  C  C102  1  0.61975359  0.32221380  0.70102906  1
  C  C103  1  0.71034059  0.27742971  0.65606245  1
  C  C104  1  0.70239707  0.25428628  0.57445204  1
  C  C105  1  0.78491150  0.21368031  0.52900049  1
  C  C106  1  0.76682790  0.18327151  0.44483938  1
  C  C107  1  0.68021422  0.12526187  0.42293793  1
  C  C108  1  0.78616631  0.17328487  0.30553890  1
  C  C109  1  0.83025597  0.18372115  0.22371850  1
  C  C110  1  0.82809305  0.20960500  0.37671999  1
  C  C111  1  0.87937949  0.19861617  0.56643910  1
  C  C112  1  0.88832224  0.22043687  0.64799731  1
  C  C113  1  0.80471417  0.25797903  0.69345360  1
  C  C114  1  0.81625142  0.27682845  0.78173463  1
  C  C115  1  0.66843160  0.60613691  0.69051394  1
  C  C116  1  0.71960953  0.69908630  0.65138002  1
  C  C117  1  0.74132230  0.69171806  0.57002839  1
  C  C118  1  0.78378377  0.77674988  0.52729876  1
  C  C119  1  0.80621703  0.75684874  0.44207814  1
  C  C120  1  0.83879181  0.65779520  0.41389395  1
  C  C121  1  0.80928762  0.78140749  0.30393564  1
  C  C122  1  0.80673222  0.83497611  0.22565204  1
  C  C123  1  0.79055149  0.82797237  0.37799191  1
  C  C124  1  0.80176320  0.87430147  0.56821080  1
  C  C125  1  0.78106284  0.88277180  0.64997080  1
  C  C126  1  0.74220349  0.79583392  0.69269840  1
  C  C127  1  0.72131725  0.80697781  0.78091281  1
  S  S128  1  0.34697653  0.34580748  0.69032543  1
  S  S129  1  0.34474782  0.62241788  0.67776891  1
  S  S130  1  0.67303126  0.10324589  0.32270356  1
  S  S131  1  0.84927164  0.65085859  0.31258931  1
  I  I132  1  0.25654438  0.03499463  0.98513289  1
  I  I133  1  0.21669277  0.46032094  0.95865970  1
  I  I134  1  0.75774084  0.95672669  0.00382574  1
  I  I135  1  0.73676308  0.54630728  0.03584533  1
  I  I136  1  0.93066304  0.24824576  -0.00067604  1
  I  I137  1  0.05037016  0.75171416  0.99285310  1
  I  I138  1  0.50451623  0.26014248  0.97499008  1
  I  I139  1  0.44063223  0.76364538  0.04423550  1
  I  I140  1  1.00138865  0.99573081  0.79424746  1
  I  I141  1  0.03078063  0.99883462  0.17556719  1
  I  I142  1  0.93011543  0.53588749  0.79236126  1
  I  I143  1  0.00486005  0.50587668  0.16602091  1
  I  I144  1  0.55471350  0.03391646  0.78973301  1
  I  I145  1  0.51743333  0.04951602  0.16513806  1
  I  I146  1  0.47837628  0.55259631  0.84722760  1
  I  I147  1  0.42565201  0.49252462  0.21256658  1
  N  N148  1  0.26053261  0.22932419  0.84148270  1
  N  N149  1  0.31429210  0.23381635  0.16809604  1
  N  N150  1  0.23957989  0.72414871  0.84082831  1
  N  N151  1  0.22219295  0.67803588  0.16852623  1
  N  N152  1  0.76162098  0.24015258  0.16580642  1
  N  N153  1  0.78542037  0.17975943  0.82840775  1
  N  N154  1  0.74979083  0.77343593  0.16131749  1
  N  N155  1  0.81367899  0.78209829  0.83073203  1
