# generated using pymatgen
data_H20PbC15(I2N)2
_symmetry_space_group_name_H-M   'P 1'
_cell_length_a   12.39885137
_cell_length_b   12.36303673
_cell_length_c   17.21187438
_cell_angle_alpha   91.19660223
_cell_angle_beta   90.88031521
_cell_angle_gamma   90.01011035
_symmetry_Int_Tables_number   1
_chemical_formula_structural   H20PbC15(I2N)2
_chemical_formula_sum   'H80 Pb4 C60 I16 N8'
_cell_volume   2637.47738983
_cell_formula_units_Z   4
loop_
 _symmetry_equiv_pos_site_id
 _symmetry_equiv_pos_as_xyz
  1  'x, y, z'
loop_
 _atom_site_type_symbol
 _atom_site_label
 _atom_site_symmetry_multiplicity
 _atom_site_fract_x
 _atom_site_fract_y
 _atom_site_fract_z
 _atom_site_occupancy
  H  H0  1  0.28982121  0.44619389  0.26835981  1
  H  H1  1  0.16639052  0.38552820  0.23833286  1
  H  H2  1  0.17338458  0.46201508  0.32645084  1
  H  H3  1  0.18923369  0.36866863  0.44246298  1
  H  H4  1  0.17163800  0.05070094  0.54704148  1
  H  H5  1  0.13906590  0.06030149  0.68832521  1
  H  H6  1  0.17818497  0.31429776  0.81063645  1
  H  H7  1  0.10529778  0.19008616  0.80267279  1
  H  H8  1  0.33397724  0.22064092  0.84710959  1
  H  H9  1  0.23714218  0.15826028  0.89274145  1
  H  H10  1  0.29185207  0.10118226  0.81360132  1
  H  H11  1  0.27343567  0.38200461  0.70054782  1
  H  H12  1  0.30491769  0.37297568  0.55857104  1
  H  H13  1  0.33054597  0.05096902  0.45235478  1
  H  H14  1  0.37190946  0.06001074  0.31185352  1
  H  H15  1  0.40854620  0.18106655  0.20312936  1
  H  H16  1  0.34234086  0.30679712  0.19364653  1
  H  H17  1  0.23177082  0.09286526  0.17480894  1
  H  H18  1  0.28298744  0.16722656  0.10311085  1
  H  H19  1  0.17954712  0.21212697  0.15435190  1
  H  H20  1  0.44555901  0.70906893  0.26778336  1
  H  H21  1  0.38449626  0.83160891  0.23931322  1
  H  H22  1  0.46119899  0.82770255  0.32692105  1
  H  H23  1  0.37038952  0.81162179  0.44397662  1
  H  H24  1  0.05234393  0.83012441  0.55035960  1
  H  H25  1  0.05983220  0.86127607  0.69276266  1
  H  H26  1  0.31205787  0.82911372  0.81306081  1
  H  H27  1  0.18117022  0.88872767  0.81023171  1
  H  H28  1  0.23656150  0.65887854  0.83708865  1
  H  H29  1  0.17497009  0.74660366  0.89626734  1
  H  H30  1  0.11034988  0.69673897  0.81744784  1
  H  H31  1  0.38103099  0.72874018  0.70145764  1
  H  H32  1  0.37406711  0.69829449  0.55852741  1
  H  H33  1  0.05178289  0.67417177  0.45378365  1
  H  H34  1  0.05792651  0.63370124  0.31222527  1
  H  H35  1  0.17879964  0.59066643  0.20216687  1
  H  H36  1  0.30394521  0.65733269  0.19253317  1
  H  H37  1  0.08543155  0.75375807  0.17460928  1
  H  H38  1  0.17131135  0.71635179  0.10412386  1
  H  H39  1  0.20043667  0.82245562  0.16301904  1
  H  H40  1  0.55230052  0.21239578  0.73108880  1
  H  H41  1  0.61294371  0.33669856  0.75997279  1
  H  H42  1  0.53647902  0.32846443  0.67281244  1
  H  H43  1  0.62973825  0.30746945  0.55553181  1
  H  H44  1  0.94741773  0.33013505  0.45286602  1
  H  H45  1  0.93778055  0.36904104  0.31205097  1
  H  H46  1  0.68503594  0.33616626  0.19114319  1
  H  H47  1  0.81157647  0.40332454  0.19825867  1
  H  H48  1  0.77270526  0.17245244  0.15615671  1
  H  H49  1  0.82211638  0.27039287  0.10173496  1
  H  H50  1  0.89573323  0.22086574  0.17542980  1
  H  H51  1  0.61929736  0.23026232  0.29789271  1
  H  H52  1  0.62784999  0.19331015  0.43877505  1
  H  H53  1  0.94953867  0.17173840  0.54698881  1
  H  H54  1  0.94115743  0.13660343  0.68783513  1
  H  H55  1  0.82123531  0.09995089  0.79699241  1
  H  H56  1  0.69594664  0.16716979  0.80788801  1
  H  H57  1  0.90393483  0.28909187  0.81482258  1
  H  H58  1  0.85243288  0.22469049  0.89132435  1
  H  H59  1  0.78611154  0.32517328  0.85149276  1
  H  H60  1  0.78869996  0.55115870  0.73290926  1
  H  H61  1  0.66385563  0.61133294  0.75824417  1
  H  H62  1  0.67334910  0.53485100  0.67107250  1
  H  H63  1  0.69480291  0.62735085  0.55484980  1
  H  H64  1  0.67542558  0.94741955  0.45395986  1
  H  H65  1  0.63722551  0.94040848  0.31233285  1
  H  H66  1  0.66263838  0.68555683  0.19051345  1
  H  H67  1  0.59413938  0.81161230  0.19778781  1
  H  H68  1  0.82550360  0.78259796  0.16176515  1
  H  H69  1  0.72352698  0.81762764  0.10213874  1
  H  H70  1  0.76311822  0.90270427  0.17432186  1
  H  H71  1  0.76717459  0.61783649  0.29820873  1
  H  H72  1  0.80625895  0.62475503  0.43990781  1
  H  H73  1  0.83006224  0.94820307  0.55016022  1
  H  H74  1  0.86389380  0.94123730  0.69213328  1
  H  H75  1  0.89609325  0.82586813  0.80348016  1
  H  H76  1  0.83578716  0.69643838  0.81058775  1
  H  H77  1  0.70838090  0.90174704  0.81801589  1
  H  H78  1  0.76565115  0.84161504  0.89512599  1
  H  H79  1  0.66905248  0.78031529  0.84360758  1
  Pb  Pb80  1  0.00511405  1.00006814  0.01995890  1
  Pb  Pb81  1  0.99283603  0.50720813  0.99296694  1
  Pb  Pb82  1  0.50946294  0.00372652  0.99219183  1
  Pb  Pb83  1  0.49405745  0.49848682  0.99833696  1
  C  C84  1  0.21767511  0.40463651  0.28962165  1
  C  C85  1  0.24881449  0.30580297  0.33403463  1
  C  C86  1  0.22892115  0.30038137  0.41355507  1
  C  C87  1  0.25782829  0.21008129  0.45746281  1
  C  C88  1  0.23986627  0.21178715  0.54235736  1
  C  C89  1  0.19489473  0.12329896  0.58040700  1
  C  C90  1  0.17665705  0.12879122  0.66012707  1
  C  C91  1  0.20402564  0.22220368  0.70393187  1
  C  C92  1  0.18138505  0.23029595  0.78921033  1
  C  C93  1  0.25054856  0.30973549  0.66660598  1
  C  C94  1  0.26777945  0.30455632  0.58690079  1
  C  C95  1  0.30669455  0.12173333  0.41938369  1
  C  C96  1  0.32921521  0.12678319  0.34042021  1
  C  C97  1  0.30146798  0.21807799  0.29736904  1
  C  C98  1  0.33243529  0.22380993  0.21363161  1
  C  C99  1  0.40393814  0.78191762  0.29002594  1
  C  C100  1  0.30569309  0.75179698  0.33480065  1
  C  C101  1  0.30148555  0.77240994  0.41488137  1
  C  C102  1  0.21161007  0.74485867  0.45900380  1
  C  C103  1  0.21334236  0.76303495  0.54415923  1
  C  C104  1  0.12442845  0.80719673  0.58331171  1
  C  C105  1  0.12871370  0.82444848  0.66361184  1
  C  C106  1  0.22143961  0.79714919  0.70673699  1
  C  C107  1  0.22846823  0.81750678  0.79292794  1
  C  C108  1  0.30954500  0.75186119  0.66800738  1
  C  C109  1  0.30554095  0.73521598  0.58786780  1
  C  C110  1  0.12232411  0.69708655  0.42074613  1
  C  C111  1  0.12598616  0.67431427  0.34134895  1
  C  C112  1  0.21705461  0.69982513  0.29802867  1
  C  C113  1  0.22148877  0.66708730  0.21366422  1
  C  C114  1  0.59389729  0.28415649  0.70920436  1
  C  C115  1  0.69259971  0.25210584  0.66462383  1
  C  C116  1  0.69814246  0.26929857  0.58473217  1
  C  C117  1  0.78902067  0.24112157  0.54091077  1
  C  C118  1  0.78807169  0.25936486  0.45609018  1
  C  C119  1  0.87590236  0.30672027  0.41876752  1
  C  C120  1  0.87062239  0.32805984  0.33948099  1
  C  C121  1  0.77805785  0.30099501  0.29519002  1
  C  C122  1  0.76918654  0.32779488  0.21065927  1
  C  C123  1  0.69127378  0.25203919  0.33194456  1
  C  C124  1  0.69612312  0.23172664  0.41112546  1
  C  C125  1  0.87795201  0.19506218  0.57938928  1
  C  C126  1  0.87307768  0.17559994  0.65868332  1
  C  C127  1  0.78141730  0.20283236  0.70163725  1
  C  C128  1  0.77797857  0.17560998  0.78610454  1
  C  C129  1  0.71705772  0.59247841  0.70916073  1
  C  C130  1  0.74903012  0.69137299  0.66561752  1
  C  C131  1  0.73271866  0.69614323  0.58522616  1
  C  C132  1  0.76122447  0.78699144  0.54235412  1
  C  C133  1  0.74305041  0.78623575  0.45724106  1
  C  C134  1  0.69743045  0.87560955  0.41979041  1
  C  C135  1  0.67573780  0.87155200  0.34015107  1
  C  C136  1  0.69968536  0.77842241  0.29562720  1
  C  C137  1  0.67016091  0.76996855  0.21071959  1
  C  C138  1  0.74735688  0.69017085  0.33244297  1
  C  C139  1  0.76873797  0.69404955  0.41208899  1
  C  C140  1  0.80673671  0.87669779  0.58203070  1
  C  C141  1  0.82519901  0.87266872  0.66190571  1
  C  C142  1  0.79753931  0.78108722  0.70404262  1
  C  C143  1  0.82336018  0.77849189  0.78935296  1
  I  I144  1  0.25698010  0.93394141  0.01522677  1
  I  I145  1  0.23659014  0.57599441  0.00989581  1
  I  I146  1  0.75959428  0.07025926  0.98747865  1
  I  I147  1  0.74054627  0.42163100  0.98800771  1
  I  I148  1  0.05984784  0.25721323  0.01777306  1
  I  I149  1  0.92760680  0.75954668  0.98993785  1
  I  I150  1  0.41629011  0.25032261  0.99945858  1
  I  I151  1  0.57572314  0.75410924  0.99892581  1
  I  I152  1  0.01047664  0.00798516  0.83709101  1
  I  I153  1  0.00333616  0.00383366  0.20690669  1
  I  I154  1  0.00411869  0.49493155  0.80534146  1
  I  I155  1  0.94768850  0.56220340  0.17338185  1
  I  I156  1  0.49756139  0.99503311  0.80411261  1
  I  I157  1  0.56481427  0.04320764  0.17331262  1
  I  I158  1  0.42758568  0.52613124  0.81590103  1
  I  I159  1  0.50211316  0.49773707  0.18236792  1
  N  N160  1  0.26575339  0.17369395  0.83793761  1
  N  N161  1  0.25136993  0.17028910  0.15889511  1
  N  N162  1  0.18421585  0.72474979  0.83839032  1
  N  N163  1  0.16609921  0.74665349  0.16130072  1
  N  N164  1  0.81869774  0.24238638  0.15810524  1
  N  N165  1  0.83395922  0.25870940  0.83812789  1
  N  N166  1  0.75214429  0.82204201  0.15946883  1
  N  N167  1  0.73627090  0.82881044  0.83881377  1
