# generated using pymatgen
data_H18PbC13S(I2N)2
_symmetry_space_group_name_H-M   'P 1'
_cell_length_a   12.86335653
_cell_length_b   12.37791910
_cell_length_c   16.94277838
_cell_angle_alpha   91.66154864
_cell_angle_beta   89.56325139
_cell_angle_gamma   90.90826747
_symmetry_Int_Tables_number   1
_chemical_formula_structural   H18PbC13S(I2N)2
_chemical_formula_sum   'H72 Pb4 C52 S4 I16 N8'
_cell_volume   2696.11376013
_cell_formula_units_Z   4
loop_
 _symmetry_equiv_pos_site_id
 _symmetry_equiv_pos_as_xyz
  1  'x, y, z'
loop_
 _atom_site_type_symbol
 _atom_site_label
 _atom_site_symmetry_multiplicity
 _atom_site_fract_x
 _atom_site_fract_y
 _atom_site_fract_z
 _atom_site_occupancy
  H  H0  1  0.34701893  0.45744232  0.35399339  1
  H  H1  1  0.42006028  0.36626411  0.29362209  1
  H  H2  1  0.29953551  0.41207709  0.26063273  1
  H  H3  1  0.28111059  0.38006635  0.46424572  1
  H  H4  1  0.14164804  0.40445164  0.55565372  1
  H  H5  1  0.12280155  0.40271263  0.71110813  1
  H  H6  1  0.15431460  0.12325308  0.79792583  1
  H  H7  1  0.11222439  0.25571829  0.82141677  1
  H  H8  1  0.33777780  0.20739947  0.80585332  1
  H  H9  1  0.26979251  0.19147831  0.88892519  1
  H  H10  1  0.28129355  0.31480847  0.85114200  1
  H  H11  1  0.16764616  0.05053456  0.46591629  1
  H  H12  1  0.21101037  0.03072294  0.32419930  1
  H  H13  1  0.31474053  0.09681115  0.21103709  1
  H  H14  1  0.35709185  0.23269572  0.20699943  1
  H  H15  1  0.21858288  0.18980811  0.11648307  1
  H  H16  1  0.13810060  0.15360353  0.18881527  1
  H  H17  1  0.17439966  0.28429577  0.18356782  1
  H  H18  1  0.44979246  0.66836187  0.33849961  1
  H  H19  1  0.36603857  0.60103791  0.27005321  1
  H  H20  1  0.41001550  0.73318412  0.25241367  1
  H  H21  1  0.37642291  0.73388826  0.45410956  1
  H  H22  1  0.39213678  0.88439609  0.54907635  1
  H  H23  1  0.38946544  0.90480795  0.70439278  1
  H  H24  1  0.12624910  0.85084861  0.79993556  1
  H  H25  1  0.25482818  0.89742421  0.81990635  1
  H  H26  1  0.19641064  0.66343643  0.80522730  1
  H  H27  1  0.19930140  0.73592208  0.88888927  1
  H  H28  1  0.30948114  0.71746324  0.83632589  1
  H  H29  1  0.05581452  0.82892335  0.47016467  1
  H  H30  1  0.03585039  0.78478281  0.32755094  1
  H  H31  1  0.09683940  0.69011547  0.21151219  1
  H  H32  1  0.22395208  0.63988254  0.20285279  1
  H  H33  1  0.17910057  0.78306463  0.11321704  1
  H  H34  1  0.17164204  0.87201707  0.18860674  1
  H  H35  1  0.28733511  0.81200272  0.16332926  1
  H  H36  1  0.52883547  0.17410459  0.65416450  1
  H  H37  1  0.60920928  0.09135438  0.71051566  1
  H  H38  1  0.57836406  0.22163435  0.74663948  1
  H  H39  1  0.61024850  0.23054560  0.54024704  1
  H  H40  1  0.59371087  0.37166291  0.45143454  1
  H  H41  1  0.60338425  0.39982175  0.29702231  1
  H  H42  1  0.87168301  0.37000009  0.20487150  1
  H  H43  1  0.74068516  0.40506286  0.18447326  1
  H  H44  1  0.81577099  0.17984919  0.19690030  1
  H  H45  1  0.79746839  0.24375010  0.11334479  1
  H  H46  1  0.69498854  0.21264241  0.17417845  1
  H  H47  1  0.93352950  0.32706066  0.53328830  1
  H  H48  1  0.94872575  0.28233333  0.67378302  1
  H  H49  1  0.87842455  0.18811099  0.78762742  1
  H  H50  1  0.74595605  0.14943872  0.79420435  1
  H  H51  1  0.78383459  0.29169342  0.88508822  1
  H  H52  1  0.83629924  0.37120684  0.81765485  1
  H  H53  1  0.70709092  0.34677276  0.81674043  1
  H  H54  1  0.83675596  0.52907332  0.64486976  1
  H  H55  1  0.91800329  0.62298272  0.69742280  1
  H  H56  1  0.79939550  0.57906575  0.73938545  1
  H  H57  1  0.77852074  0.61121544  0.53284568  1
  H  H58  1  0.64660734  0.58372017  0.44113510  1
  H  H59  1  0.62209897  0.59213182  0.28638629  1
  H  H60  1  0.64016681  0.87686439  0.20628530  1
  H  H61  1  0.60484475  0.74113071  0.17997294  1
  H  H62  1  0.82613082  0.81258515  0.19637845  1
  H  H63  1  0.75928699  0.82070108  0.11265000  1
  H  H64  1  0.77808176  0.69915220  0.14991748  1
  H  H65  1  0.67023113  0.93929520  0.53660055  1
  H  H66  1  0.71028962  0.95453769  0.67921288  1
  H  H67  1  0.79908325  0.88750035  0.79214555  1
  H  H68  1  0.85442187  0.75803337  0.79115480  1
  H  H69  1  0.71816451  0.77272911  0.88480026  1
  H  H70  1  0.63177177  0.81153975  0.81973493  1
  H  H71  1  0.67461790  0.68273231  0.81413660  1
  Pb  Pb72  1  -0.00029918  0.99902724  0.00503896  1
  Pb  Pb73  1  0.01622048  0.48747383  0.01588269  1
  Pb  Pb74  1  0.51202463  1.00451234  0.02101861  1
  Pb  Pb75  1  0.51284358  0.49452663  0.97550946  1
  C  C76  1  0.34111430  0.38706476  0.31338683  1
  C  C77  1  0.28906148  0.29389352  0.35300978  1
  C  C78  1  0.26374990  0.30369993  0.43296891  1
  C  C79  1  0.21973292  0.21808855  0.47517482  1
  C  C80  1  0.19518557  0.23900862  0.55871643  1
  C  C81  1  0.16097678  0.33606108  0.59152191  1
  C  C82  1  0.15132433  0.33549832  0.67451573  1
  C  C83  1  0.17803261  0.23815095  0.70590562  1
  C  C84  1  0.17298457  0.20915719  0.79045896  1
  C  C85  1  0.20195833  0.11868209  0.43507478  1
  C  C86  1  0.22633600  0.10800260  0.35495222  1
  C  C87  1  0.26879676  0.19433745  0.31295991  1
  C  C88  1  0.29292021  0.18012608  0.22626735  1
  C  C89  1  0.38362093  0.67940621  0.29942909  1
  C  C90  1  0.29226402  0.72273425  0.34513325  1
  C  C91  1  0.30195654  0.74710854  0.42576334  1
  C  C92  1  0.21841682  0.78541206  0.47214681  1
  C  C93  1  0.23759101  0.81166167  0.55571041  1
  C  C94  1  0.32790448  0.85775000  0.58635006  1
  C  C95  1  0.32649055  0.86898395  0.66936530  1
  C  C96  1  0.23570221  0.83088689  0.70332392  1
  C  C97  1  0.20875440  0.83412347  0.78893172  1
  C  C98  1  0.12176120  0.79832672  0.43589036  1
  C  C99  1  0.11093636  0.77400877  0.35553977  1
  C  C100  1  0.19483182  0.73696131  0.30947603  1
  C  C101  1  0.17866721  0.70965071  0.22342583  1
  C  C102  1  0.59736746  0.17491122  0.69234013  1
  C  C103  1  0.69094198  0.21986996  0.65000207  1
  C  C104  1  0.68411871  0.24450350  0.57037008  1
  C  C105  1  0.76926808  0.28489225  0.52703856  1
  C  C106  1  0.75226746  0.31362547  0.44491861  1
  C  C107  1  0.66122316  0.35338083  0.41453797  1
  C  C108  1  0.66633790  0.36964266  0.33253549  1
  C  C109  1  0.76119622  0.34311937  0.29959763  1
  C  C110  1  0.78970215  0.34736231  0.21450567  1
  C  C111  1  0.86553607  0.29691575  0.56521289  1
  C  C112  1  0.87368832  0.27220400  0.64461972  1
  C  C113  1  0.78750713  0.23565365  0.68803749  1
  C  C114  1  0.79927308  0.21323514  0.77421831  1
  C  C115  1  0.83668049  0.60159903  0.68361242  1
  C  C116  1  0.78426770  0.69368443  0.64554488  1
  C  C117  1  0.76089492  0.68609032  0.56541575  1
  C  C118  1  0.71832474  0.77216031  0.52477241  1
  C  C119  1  0.69357022  0.75323163  0.44122946  1
  C  C120  1  0.66169705  0.65536577  0.40683068  1
  C  C121  1  0.64906337  0.65935116  0.32429399  1
  C  C122  1  0.67075763  0.76015063  0.29509118  1
  C  C123  1  0.66260876  0.79202537  0.21157508  1
  C  C124  1  0.70160433  0.87019120  0.56656247  1
  C  C125  1  0.72360637  0.87834812  0.64700781  1
  C  C126  1  0.76281205  0.79092642  0.68766636  1
  C  C127  1  0.78535541  0.80268700  0.77448227  1
  S  S128  1  0.21402964  0.14646390  0.63171721  1
  S  S129  1  0.15024552  0.78325293  0.63101606  1
  S  S130  1  0.84495194  0.29832486  0.37084211  1
  S  S131  1  0.70661749  0.85068385  0.37037797  1
  I  I132  1  0.24524617  0.05874420  0.99833024  1
  I  I133  1  0.27500794  0.48351490  0.94168606  1
  I  I134  1  0.74942200  0.93504427  0.99874707  1
  I  I135  1  0.78625021  0.55463891  0.03374432  1
  I  I136  1  0.92368362  0.24488586  0.99882986  1
  I  I137  1  0.06495745  0.74839264  0.99959540  1
  I  I138  1  0.53026168  0.24975480  0.93982792  1
  I  I139  1  0.43615290  0.77027179  0.05452027  1
  I  I140  1  0.98276555  0.99778122  0.82426892  1
  I  I141  1  -0.00339538  0.99590656  0.20482114  1
  I  I142  1  0.99839303  0.49177786  0.83041275  1
  I  I143  1  0.06936296  0.44375682  0.20047276  1
  I  I144  1  0.49498274  0.94641732  0.83637609  1
  I  I145  1  0.55469644  0.07752255  0.20197887  1
  I  I146  1  0.57979495  0.50726035  0.78593997  1
  I  I147  1  0.51193332  0.46740549  0.15317005  1
  N  N148  1  0.27231450  0.23273651  0.83577632  1
  N  N149  1  0.20068516  0.20461902  0.17584574  1
  N  N150  1  0.23100359  0.73081252  0.83170293  1
  N  N151  1  0.20763590  0.80110896  0.17009010  1
  N  N152  1  0.77270599  0.23947247  0.17201372  1
  N  N153  1  0.77895890  0.31171103  0.82627500  1
  N  N154  1  0.76365232  0.77943353  0.16591884  1
  N  N155  1  0.69743103  0.76332598  0.82602054  1
