# generated using pymatgen
data_H18PbC16S(I2N)2
_symmetry_space_group_name_H-M   'P 1'
_cell_length_a   13.21309909
_cell_length_b   12.67964521
_cell_length_c   17.28766537
_cell_angle_alpha   89.34659443
_cell_angle_beta   90.13160474
_cell_angle_gamma   90.02823009
_symmetry_Int_Tables_number   1
_chemical_formula_structural   H18PbC16S(I2N)2
_chemical_formula_sum   'H72 Pb4 C64 S4 I16 N8'
_cell_volume   2896.13436469
_cell_formula_units_Z   4
loop_
 _symmetry_equiv_pos_site_id
 _symmetry_equiv_pos_as_xyz
  1  'x, y, z'
loop_
 _atom_site_type_symbol
 _atom_site_label
 _atom_site_symmetry_multiplicity
 _atom_site_fract_x
 _atom_site_fract_y
 _atom_site_fract_z
 _atom_site_occupancy
  H  H0  1  0.25057204  0.06755278  0.82273598  1
  H  H1  1  0.29668784  0.12455021  0.90219226  1
  H  H2  1  0.36263365  0.12705691  0.82087616  1
  H  H3  1  0.27292481  0.29641707  0.85284585  1
  H  H4  1  0.15790722  0.22437091  0.84391594  1
  H  H5  1  0.12282338  0.13514920  0.70882636  1
  H  H6  1  0.12090219  0.17476743  0.56833987  1
  H  H7  1  0.20500970  0.50207643  0.51293379  1
  H  H8  1  0.20398037  0.32772088  0.23209959  1
  H  H9  1  0.24386234  0.03902873  0.20109456  1
  H  H10  1  0.17861071  0.15021810  0.16289937  1
  H  H11  1  0.33570728  0.14814003  0.10121637  1
  H  H12  1  0.40039309  0.12090374  0.18061793  1
  H  H13  1  0.35100321  0.24295380  0.16643533  1
  H  H14  1  0.26319110  0.02613053  0.34224454  1
  H  H15  1  0.25701432  0.10827598  0.47165331  1
  H  H16  1  0.34840656  0.41354835  0.60169699  1
  H  H17  1  0.35238476  0.37279147  0.74192156  1
  H  H18  1  0.08462978  0.73477190  0.81947372  1
  H  H19  1  0.14194549  0.69638703  0.90200420  1
  H  H20  1  0.15302891  0.62607940  0.82373079  1
  H  H21  1  0.30662736  0.72853999  0.85275078  1
  H  H22  1  0.23154559  0.84425464  0.84137766  1
  H  H23  1  0.14906769  0.88195870  0.70808175  1
  H  H24  1  0.18032333  0.88098944  0.56726111  1
  H  H25  1  0.48800853  0.78696501  0.51270120  1
  H  H26  1  0.31919158  0.80122386  0.23116804  1
  H  H27  1  0.04292891  0.75019137  0.19781919  1
  H  H28  1  0.14412048  0.82832353  0.16172362  1
  H  H29  1  0.15249868  0.67005423  0.09591962  1
  H  H30  1  0.13157196  0.59507380  0.17357184  1
  H  H31  1  0.24392721  0.65538935  0.16149431  1
  H  H32  1  0.03030799  0.73503319  0.33845373  1
  H  H33  1  0.10909773  0.73998538  0.46868054  1
  H  H34  1  0.40222728  0.63521367  0.60001284  1
  H  H35  1  0.37169572  0.63638758  0.74124220  1
  H  H36  1  0.92197225  0.28486012  0.17495906  1
  H  H37  1  0.87466966  0.22893390  0.09680711  1
  H  H38  1  0.88378065  0.15775581  0.17837271  1
  H  H39  1  0.70741020  0.22336956  0.14796859  1
  H  H40  1  0.75799650  0.35262721  0.15675906  1
  H  H41  1  0.85367186  0.38913718  0.29290085  1
  H  H42  1  0.81813716  0.38307874  0.43286349  1
  H  H43  1  0.50782374  0.28109799  0.48599867  1
  H  H44  1  0.67953963  0.30134436  0.76639006  1
  H  H45  1  0.96276073  0.28994215  0.79265753  1
  H  H46  1  0.85229601  0.35021303  0.83014355  1
  H  H47  1  0.89030922  0.19420565  0.90051991  1
  H  H48  1  0.89479236  0.11933092  0.82283048  1
  H  H49  1  0.78341578  0.17076395  0.85098662  1
  H  H50  1  0.96982091  0.25380215  0.65671133  1
  H  H51  1  0.88748434  0.24616716  0.52772392  1
  H  H52  1  0.59962530  0.13587282  0.39674872  1
  H  H53  1  0.63772520  0.13939754  0.25661734  1
  H  H54  1  0.71692409  0.92169911  0.17216371  1
  H  H55  1  0.77453244  0.87440628  0.09509435  1
  H  H56  1  0.84064085  0.88686523  0.17678751  1
  H  H57  1  0.78188085  0.70049668  0.14720127  1
  H  H58  1  0.65732542  0.75061058  0.15953392  1
  H  H59  1  0.64083782  0.86817220  0.29240024  1
  H  H60  1  0.64686488  0.83600145  0.43301183  1
  H  H61  1  0.70675207  0.50284748  0.48426821  1
  H  H62  1  0.68539019  0.66959371  0.76596255  1
  H  H63  1  0.73287806  0.95511708  0.80430551  1
  H  H64  1  0.66411513  0.84359284  0.83735530  1
  H  H65  1  0.81715695  0.85010988  0.90585554  1
  H  H66  1  0.88802028  0.86526839  0.82766900  1
  H  H67  1  0.83224437  0.74851645  0.84466254  1
  H  H68  1  0.76604126  0.97172181  0.66447876  1
  H  H69  1  0.77027974  0.89333244  0.53397532  1
  H  H70  1  0.85879963  0.58295678  0.39940886  1
  H  H71  1  0.85560479  0.61711973  0.25786492  1
  Pb  Pb72  1  0.02801809  0.98737359  0.02051590  1
  Pb  Pb73  1  0.98770358  0.49370023  0.99241668  1
  Pb  Pb74  1  0.52347719  0.98780362  0.98222015  1
  Pb  Pb75  1  0.51552632  0.49192205  0.99869036  1
  C  C76  1  0.23501257  0.23307721  0.82121711  1
  C  C77  1  0.23626253  0.25278565  0.73533165  1
  C  C78  1  0.17328016  0.19577197  0.68534811  1
  C  C79  1  0.17244008  0.21753856  0.60616469  1
  C  C80  1  0.23334776  0.29855395  0.57506940  1
  C  C81  1  0.22479035  0.33216895  0.49348066  1
  C  C82  1  0.21092518  0.43648856  0.47322293  1
  C  C83  1  0.21328829  0.32601090  0.35688609  1
  C  C84  1  0.21553927  0.27975320  0.28417690  1
  C  C85  1  0.23413617  0.17186320  0.27924993  1
  C  C86  1  0.24205650  0.12545395  0.19994817  1
  C  C87  1  0.24870822  0.11058783  0.34706578  1
  C  C88  1  0.24485955  0.15640850  0.41972591  1
  C  C89  1  0.22716886  0.26570396  0.42611831  1
  C  C90  1  0.29840504  0.35280158  0.62525423  1
  C  C91  1  0.30031011  0.33011519  0.70424063  1
  C  C92  1  0.24352796  0.76399366  0.82032762  1
  C  C93  1  0.25916096  0.76036956  0.73438020  1
  C  C94  1  0.20395958  0.82683921  0.68443550  1
  C  C95  1  0.22079620  0.82578923  0.60503987  1
  C  C96  1  0.29447104  0.75877560  0.57378407  1
  C  C97  1  0.32489806  0.76894067  0.49215322  1
  C  C98  1  0.42478835  0.78312141  0.47245747  1
  C  C99  1  0.31758242  0.78704349  0.35585847  1
  C  C100  1  0.27316880  0.78670316  0.28270168  1
  C  C101  1  0.16989858  0.76607893  0.27676495  1
  C  C102  1  0.12540587  0.75871537  0.19714677  1
  C  C103  1  0.11130861  0.75006804  0.34406070  1
  C  C104  1  0.15528834  0.75292182  0.41719817  1
  C  C105  1  0.26025852  0.77020337  0.42462049  1
  C  C106  1  0.34624849  0.68902944  0.62378065  1
  C  C107  1  0.32891287  0.68965260  0.70322852  1
  C  C108  1  0.76308478  0.27125948  0.17897575  1
  C  C109  1  0.74746556  0.26492445  0.26493728  1
  C  C110  1  0.79901544  0.33210043  0.31554532  1
  C  C111  1  0.77883306  0.32881331  0.39454876  1
  C  C112  1  0.70442130  0.26050685  0.42474475  1
  C  C113  1  0.67169999  0.26630938  0.50600621  1
  C  C114  1  0.57137491  0.27609280  0.52596143  1
  C  C115  1  0.67879634  0.27825363  0.64270289  1
  C  C116  1  0.72501812  0.28492852  0.71512905  1
  C  C117  1  0.83006762  0.27600720  0.71940981  1
  C  C118  1  0.88027080  0.28299881  0.79697419  1
  C  C119  1  0.88777351  0.26065714  0.65188816  1
  C  C120  1  0.84196844  0.25665402  0.57961615  1
  C  C121  1  0.73605443  0.26663536  0.57354591  1
  C  C122  1  0.65562242  0.19121372  0.37399659  1
  C  C123  1  0.67728063  0.19312453  0.29525744  1
  C  C124  1  0.73630835  0.75761273  0.17906133  1
  C  C125  1  0.74642807  0.74356327  0.26515224  1
  C  C126  1  0.69096731  0.80702003  0.31557219  1
  C  C127  1  0.69380991  0.78859982  0.39496112  1
  C  C128  1  0.75004837  0.70426902  0.42617124  1
  C  C129  1  0.73566363  0.67041141  0.50711909  1
  C  C130  1  0.71424318  0.56676164  0.52522537  1
  C  C131  1  0.70924815  0.67448882  0.64246082  1
  C  C132  1  0.70572945  0.71843112  0.71589551  1
  C  C133  1  0.72836429  0.82509682  0.72367431  1
  C  C134  1  0.73047691  0.86875301  0.80391926  1
  C  C135  1  0.75087016  0.88763697  0.65777854  1
  C  C136  1  0.75275655  0.84403073  0.58432587  1
  C  C137  1  0.73314767  0.73548055  0.57519444  1
  C  C138  1  0.81097871  0.64562446  0.37577894  1
  C  C139  1  0.80938792  0.66506154  0.29624565  1
  S  S140  1  0.19802508  0.45912285  0.37539531  1
  S  S141  1  0.44518115  0.80070291  0.37494910  1
  S  S142  1  0.55041951  0.28712060  0.62379597  1
  S  S143  1  0.68967154  0.54308946  0.62139397  1
  I  I144  1  0.25375710  0.93962250  0.02240380  1
  I  I145  1  0.22178456  0.52696499  0.98129146  1
  I  I146  1  0.76333741  0.03627695  0.99366154  1
  I  I147  1  0.74734685  0.49965167  0.03181567  1
  I  I148  1  0.03843648  0.24115649  0.99226625  1
  I  I149  1  0.95921705  0.74898908  0.02188055  1
  I  I150  1  0.45664306  0.22446274  0.98509168  1
  I  I151  1  0.49978992  0.73734208  0.99469462  1
  I  I152  1  0.03676571  0.98467574  0.82500765  1
  I  I153  1  0.99107181  0.00135291  0.20410427  1
  I  I154  1  0.93027370  0.56721924  0.81743329  1
  I  I155  1  0.00840115  0.45975503  0.18294857  1
  I  I156  1  0.49417705  0.99135796  0.80026760  1
  I  I157  1  0.52632717  0.97660154  0.17488588  1
  I  I158  1  0.52414989  0.48144311  0.81689008  1
  I  I159  1  0.42413308  0.45164448  0.17148063  1
  N  N160  1  0.28885405  0.13259604  0.84277153  1
  N  N161  1  0.33717835  0.16240268  0.16014588  1
  N  N162  1  0.15007878  0.70294599  0.84245820  1
  N  N163  1  0.16698648  0.66510151  0.15476840  1
  N  N164  1  0.86618710  0.23254536  0.15615842  1
  N  N165  1  0.85948141  0.18592225  0.84524769  1
  N  N166  1  0.76985801  0.86602889  0.15458303  1
  N  N167  1  0.82187427  0.82985889  0.84818024  1
