# generated using pymatgen
data_H16PbC14S2(I2N)2
_symmetry_space_group_name_H-M   'P 1'
_cell_length_a   13.29702610
_cell_length_b   12.90169038
_cell_length_c   17.17298741
_cell_angle_alpha   88.12287327
_cell_angle_beta   88.98123452
_cell_angle_gamma   88.68533756
_symmetry_Int_Tables_number   1
_chemical_formula_structural   H16PbC14S2(I2N)2
_chemical_formula_sum   'H64 Pb4 C56 S8 I16 N8'
_cell_volume   2943.31309214
_cell_formula_units_Z   4
loop_
 _symmetry_equiv_pos_site_id
 _symmetry_equiv_pos_as_xyz
  1  'x, y, z'
loop_
 _atom_site_type_symbol
 _atom_site_label
 _atom_site_symmetry_multiplicity
 _atom_site_fract_x
 _atom_site_fract_y
 _atom_site_fract_z
 _atom_site_occupancy
  H  H0  1  0.20921832  0.27436912  0.84884448  1
  H  H1  1  0.32942402  0.30524382  0.83909725  1
  H  H2  1  0.24840632  0.38180627  0.88851617  1
  H  H3  1  0.27855292  0.46893489  0.76772803  1
  H  H4  1  0.15323512  0.42041294  0.77159027  1
  H  H5  1  0.37031350  0.44216539  0.65025850  1
  H  H6  1  0.40479189  0.34444570  0.53031991  1
  H  H7  1  0.33212369  0.00717926  0.54170034  1
  H  H8  1  0.34172023  0.12024042  0.22543747  1
  H  H9  1  0.33255135  0.41991250  0.21482191  1
  H  H10  1  0.36492962  0.31191752  0.15857659  1
  H  H11  1  0.15190041  0.38110157  0.19428139  1
  H  H12  1  0.18826201  0.28069650  0.13947753  1
  H  H13  1  0.21945107  0.39903291  0.11256255  1
  H  H14  1  0.18571831  0.12003668  0.60619645  1
  H  H15  1  0.14777569  0.21892359  0.72324583  1
  H  H16  1  0.27741677  0.80945914  0.84653086  1
  H  H17  1  0.31534599  0.68505282  0.84344540  1
  H  H18  1  0.38481077  0.77023374  0.88784672  1
  H  H19  1  0.46725902  0.73550905  0.76866668  1
  H  H20  1  0.41899967  0.86632177  0.76950768  1
  H  H21  1  0.43851819  0.63817505  0.65875246  1
  H  H22  1  0.34504742  0.60572204  0.53844648  1
  H  H23  1  0.02550086  0.68403785  0.54056509  1
  H  H24  1  0.13544038  0.64275636  0.22880959  1
  H  H25  1  0.42102358  0.66512773  0.21425049  1
  H  H26  1  0.31477398  0.63350999  0.16084023  1
  H  H27  1  0.38659735  0.84751125  0.18725485  1
  H  H28  1  0.27945712  0.82076836  0.14008185  1
  H  H29  1  0.38997374  0.78037135  0.10685381  1
  H  H30  1  0.13739930  0.85600069  0.59143171  1
  H  H31  1  0.23063693  0.89004591  0.71067806  1
  H  H32  1  0.72812988  0.24583496  0.15245816  1
  H  H33  1  0.66142511  0.13692744  0.16184522  1
  H  H34  1  0.61777757  0.23751632  0.10858805  1
  H  H35  1  0.53010579  0.21924988  0.23363071  1
  H  H36  1  0.58595531  0.34177945  0.21451473  1
  H  H37  1  0.57008476  0.12313850  0.35102599  1
  H  H38  1  0.66247640  0.10895792  0.47554484  1
  H  H39  1  0.97756610  0.21754521  0.46121647  1
  H  H40  1  0.87986235  0.16743763  0.77533099  1
  H  H41  1  0.58820507  0.15215086  0.79083529  1
  H  H42  1  0.69878696  0.10991307  0.83983079  1
  H  H43  1  0.62661512  0.33006382  0.82174826  1
  H  H44  1  0.73423113  0.29080847  0.86380161  1
  H  H45  1  0.62383363  0.25272500  0.90237030  1
  H  H46  1  0.85456712  0.35637962  0.39545631  1
  H  H47  1  0.76212606  0.37169862  0.27201795  1
  H  H48  1  0.75739017  0.74249797  0.15635992  1
  H  H49  1  0.85405316  0.65768748  0.16712317  1
  H  H50  1  0.76117768  0.63105243  0.10901051  1
  H  H51  1  0.75366257  0.53040483  0.22907622  1
  H  H52  1  0.64330488  0.60567597  0.20884285  1
  H  H53  1  0.82948321  0.54221573  0.35259976  1
  H  H54  1  0.84228756  0.62611892  0.47975272  1
  H  H55  1  0.80370858  0.96699971  0.45055408  1
  H  H56  1  0.87956915  0.87147543  0.76232320  1
  H  H57  1  0.85979436  0.58148778  0.79322031  1
  H  H58  1  0.88510402  0.69787434  0.84100325  1
  H  H59  1  0.67989445  0.61291014  0.82024692  1
  H  H60  1  0.70614504  0.72028978  0.86774481  1
  H  H61  1  0.74894735  0.60524554  0.90075514  1
  H  H62  1  0.64308105  0.87326705  0.39914264  1
  H  H63  1  0.62335847  0.78559146  0.27497683  1
  Pb  Pb64  1  0.02739228  0.01249778  -0.00010569  1
  Pb  Pb65  1  0.97505937  0.47202363  0.00065018  1
  Pb  Pb66  1  0.49100897  0.00711142  0.99664802  1
  Pb  Pb67  1  0.48801588  0.50280104  0.97169548  1
  C  C68  1  0.23363764  0.39880244  0.76637022  1
  C  C69  1  0.25676198  0.33807828  0.69487417  1
  C  C70  1  0.32856764  0.37235356  0.63973203  1
  C  C71  1  0.34790957  0.31737105  0.57232224  1
  C  C72  1  0.29726286  0.22514434  0.55963793  1
  C  C73  1  0.31550755  0.16486832  0.48919538  1
  C  C74  1  0.32934944  0.05826650  0.49014952  1
  C  C75  1  0.33258302  0.12805022  0.35479627  1
  C  C76  1  0.32942383  0.16667936  0.27672879  1
  C  C77  1  0.31176208  0.27240793  0.27351739  1
  C  C78  1  0.31099005  0.34079955  0.20244585  1
  C  C79  1  0.31797419  0.20456220  0.41049081  1
  C  C80  1  0.22703574  0.19028013  0.61600147  1
  C  C81  1  0.20583260  0.24655561  0.68222690  1
  C  C82  1  0.39881906  0.78441529  0.76554711  1
  C  C83  1  0.34074236  0.76509052  0.69345994  1
  C  C84  1  0.37276273  0.68638807  0.64373134  1
  C  C85  1  0.32070883  0.66851287  0.57596092  1
  C  C86  1  0.23434416  0.72803931  0.55696452  1
  C  C87  1  0.17658653  0.70414401  0.48763302  1
  C  C88  1  0.07479523  0.68438581  0.48935299  1
  C  C89  1  0.14375705  0.66660154  0.35637647  1
  C  C90  1  0.17976491  0.66332270  0.27856695  1
  C  C91  1  0.27968638  0.68855475  0.27369221  1
  C  C92  1  0.34309828  0.68847748  0.20221055  1
  C  C93  1  0.21599816  0.69354542  0.41025842  1
  C  C94  1  0.20309341  0.80775555  0.60646129  1
  C  C95  1  0.25604878  0.82671351  0.67372815  1
  C  C96  1  0.60167313  0.25970100  0.22938714  1
  C  C97  1  0.65990880  0.24763367  0.30302363  1
  C  C98  1  0.63222772  0.17460046  0.36117095  1
  C  C99  1  0.68387345  0.16709540  0.43113261  1
  C  C100  1  0.76554575  0.23145231  0.44369275  1
  C  C101  1  0.82534497  0.22163091  0.51482319  1
  C  C102  1  0.92952746  0.21669535  0.51310247  1
  C  C103  1  0.86593905  0.20226125  0.64828504  1
  C  C104  1  0.83156179  0.18423752  0.72571110  1
  C  C105  1  0.72810851  0.18621352  0.72972492  1
  C  C106  1  0.66656803  0.17159166  0.80167008  1
  C  C107  1  0.78905677  0.21431512  0.59357230  1
  C  C108  1  0.79267766  0.30477899  0.38524663  1
  C  C109  1  0.74015464  0.31312838  0.31603778  1
  C  C110  1  0.72140622  0.60929858  0.22754401  1
  C  C111  1  0.72840595  0.65946164  0.30434263  1
  C  C112  1  0.78642881  0.61335676  0.36363904  1
  C  C113  1  0.79414130  0.66093861  0.43475963  1
  C  C114  1  0.74779017  0.75797477  0.44679582  1
  C  C115  1  0.77584901  0.81834543  0.51368282  1
  C  C116  1  0.80307652  0.92108877  0.50473595  1
  C  C117  1  0.83210152  0.85811761  0.63924024  1
  C  C118  1  0.84689780  0.82495292  0.71761080  1
  C  C119  1  0.81957299  0.72332296  0.72957806  1
  C  C120  1  0.83212899  0.66111176  0.80272697  1
  C  C121  1  0.79335889  0.78233170  0.59192127  1
  C  C122  1  0.68409396  0.80067133  0.38895986  1
  C  C123  1  0.67365581  0.75126458  0.31891977  1
  S  S124  1  0.34592055  0.00681527  0.39924811  1
  S  S125  1  0.29979948  0.32504922  0.36575373  1
  S  S126  1  0.02802932  0.65245597  0.40053374  1
  S  S127  1  0.33046153  0.71425747  0.36402056  1
  S  S128  1  0.98236003  0.20249992  0.60353848  1
  S  S129  1  0.67260061  0.20850589  0.63904901  1
  S  S130  1  0.84937978  0.97246294  0.58731366  1
  S  S131  1  0.77588532  0.66794059  0.64504314  1
  I  I132  1  0.24091045  0.91235386  0.00588359  1
  I  I133  1  0.25491218  0.54727593  0.97771339  1
  I  I134  1  0.71939963  0.05081722  0.99737335  1
  I  I135  1  0.74337245  0.44595003  0.01544344  1
  I  I136  1  0.11492318  0.23414770  0.00483792  1
  I  I137  1  0.94278941  0.71026977  -0.00066970  1
  I  I138  1  0.45842437  0.26122183  0.00716718  1
  I  I139  1  0.54228578  0.75718601  0.97726644  1
  I  I140  1  0.05493185  0.00517936  0.80908413  1
  I  I141  1  0.98000549  0.98542032  0.17601456  1
  I  I142  1  0.94953417  0.39785443  0.82938949  1
  I  I143  1  0.97855352  0.47221333  0.19683903  1
  I  I144  1  0.41041028  0.06275274  0.82855999  1
  I  I145  1  0.52375545  0.97449044  0.19224791  1
  I  I146  1  0.53215494  0.49501355  0.78098880  1
  I  I147  1  0.50787181  0.50469172  0.14531085  1
  N  N148  1  0.25700699  0.33587878  0.83990731  1
  N  N149  1  0.21174636  0.35024174  0.16136910  1
  N  N150  1  0.33940544  0.76059907  0.83969083  1
  N  N151  1  0.34867419  0.79050994  0.15789806  1
  N  N152  1  0.65674941  0.21735947  0.15908307  1
  N  N153  1  0.66293199  0.26745065  0.85046569  1
  N  N154  1  0.77668090  0.66491511  0.16136046  1
  N  N155  1  0.73566388  0.64993049  0.85035175  1
