# generated using pymatgen
data_H20PbC15(I2N)2
_symmetry_space_group_name_H-M   'P 1'
_cell_length_a   12.56894314
_cell_length_b   12.62566315
_cell_length_c   16.74006433
_cell_angle_alpha   89.16175492
_cell_angle_beta   89.33415122
_cell_angle_gamma   89.37722741
_symmetry_Int_Tables_number   1
_chemical_formula_structural   H20PbC15(I2N)2
_chemical_formula_sum   'H80 Pb4 C60 I16 N8'
_cell_volume   2655.88586421
_cell_formula_units_Z   4
loop_
 _symmetry_equiv_pos_site_id
 _symmetry_equiv_pos_as_xyz
  1  'x, y, z'
loop_
 _atom_site_type_symbol
 _atom_site_label
 _atom_site_symmetry_multiplicity
 _atom_site_fract_x
 _atom_site_fract_y
 _atom_site_fract_z
 _atom_site_occupancy
  H  H0  1  0.18375402  0.07604694  0.50574686  1
  H  H1  1  0.08967835  0.17361995  0.47798161  1
  H  H2  1  0.06701611  0.09349598  0.56508283  1
  H  H3  1  0.11567018  0.15723643  0.69104994  1
  H  H4  1  0.20438793  0.36442456  0.82566220  1
  H  H5  1  0.12988137  0.24620987  0.81753191  1
  H  H6  1  0.36461014  0.26465583  0.83360280  1
  H  H7  1  0.28034055  0.21246814  0.89949418  1
  H  H8  1  0.30821041  0.14935083  0.81513247  1
  H  H9  1  0.32231539  0.42568693  0.71096673  1
  H  H10  1  0.35208465  0.42513970  0.56409291  1
  H  H11  1  0.37665338  0.15051174  0.46385650  1
  H  H12  1  0.41064253  0.14601330  0.31722720  1
  H  H13  1  0.33110715  0.36460358  0.17800016  1
  H  H14  1  0.41831878  0.25502857  0.19168688  1
  H  H15  1  0.28959519  0.21639697  0.09766519  1
  H  H16  1  0.27015188  0.13695243  0.17593567  1
  H  H17  1  0.18663289  0.23954827  0.16057018  1
  H  H18  1  0.20969764  0.42168465  0.28563615  1
  H  H19  1  0.17537527  0.42525905  0.43213591  1
  H  H20  1  0.06794451  0.79812664  0.50628936  1
  H  H21  1  0.15613262  0.89902427  0.47671091  1
  H  H22  1  0.07524368  0.91466792  0.56398163  1
  H  H23  1  0.15192194  0.87815626  0.68911076  1
  H  H24  1  0.36844855  0.79533398  0.82394152  1
  H  H25  1  0.24898130  0.87107278  0.81468341  1
  H  H26  1  0.26493976  0.63582389  0.83167718  1
  H  H27  1  0.22518425  0.71831983  0.90169821  1
  H  H28  1  0.15092591  0.70055459  0.82109136  1
  H  H29  1  0.43119462  0.67879574  0.71162141  1
  H  H30  1  0.42913467  0.64823781  0.56539006  1
  H  H31  1  0.14936216  0.62271185  0.46368407  1
  H  H32  1  0.14748846  0.59122333  0.31751898  1
  H  H33  1  0.36807125  0.67033456  0.17923064  1
  H  H34  1  0.25970585  0.58326190  0.19326091  1
  H  H35  1  0.21960553  0.71113582  0.09739201  1
  H  H36  1  0.13809050  0.73053674  0.17498367  1
  H  H37  1  0.23967638  0.81400310  0.15822161  1
  H  H38  1  0.42500556  0.78594250  0.28698486  1
  H  H39  1  0.42549892  0.81804108  0.43296414  1
  H  H40  1  0.92995356  0.30501483  0.49914345  1
  H  H41  1  0.83914593  0.40845953  0.51968254  1
  H  H42  1  0.92583634  0.41767414  0.43465923  1
  H  H43  1  0.85129174  0.38194510  0.30971099  1
  H  H44  1  0.63832651  0.29992471  0.17555133  1
  H  H45  1  0.75781967  0.37267722  0.18263044  1
  H  H46  1  0.73818578  0.13893084  0.16492334  1
  H  H47  1  0.78882661  0.22482414  0.09871412  1
  H  H48  1  0.85347603  0.19611917  0.18204678  1
  H  H49  1  0.58256088  0.17617546  0.28720850  1
  H  H50  1  0.58166615  0.14557968  0.43436779  1
  H  H51  1  0.84843589  0.11507480  0.53840801  1
  H  H52  1  0.84646685  0.07956549  0.68496565  1
  H  H53  1  0.63213644  0.17095089  0.82235280  1
  H  H54  1  0.74315871  0.08412223  0.81074749  1
  H  H55  1  0.78451179  0.21674900  0.90081914  1
  H  H56  1  0.85983931  0.23567994  0.82027960  1
  H  H57  1  0.75495647  0.31609504  0.83705358  1
  H  H58  1  0.57663385  0.29090695  0.71121656  1
  H  H59  1  0.57790030  0.32443805  0.56481662  1
  H  H60  1  0.68996173  0.93263004  0.49733970  1
  H  H61  1  0.58901774  0.84197070  0.52255263  1
  H  H62  1  0.57615411  0.92547663  0.43608267  1
  H  H63  1  0.61773064  0.85207323  0.31116286  1
  H  H64  1  0.70018647  0.63501870  0.17827833  1
  H  H65  1  0.62520010  0.75475352  0.18543301  1
  H  H66  1  0.86032140  0.73411444  0.16540891  1
  H  H67  1  0.77448212  0.77713874  0.09766693  1
  H  H68  1  0.79908730  0.85015832  0.17768513  1
  H  H69  1  0.81979505  0.57604674  0.28956387  1
  H  H70  1  0.85132318  0.57889177  0.43568131  1
  H  H71  1  0.87903932  0.84876536  0.53754048  1
  H  H72  1  0.91605847  0.84557256  0.68318924  1
  H  H73  1  0.82908382  0.63095184  0.82218637  1
  H  H74  1  0.91605001  0.73955044  0.80837195  1
  H  H75  1  0.78374827  0.77630148  0.90387320  1
  H  H76  1  0.76691577  0.85904261  0.82691883  1
  H  H77  1  0.68318665  0.75759671  0.84141716  1
  H  H78  1  0.70875301  0.57745614  0.71386867  1
  H  H79  1  0.67516687  0.57918878  0.56805759  1
  Pb  Pb80  1  -0.00221872  0.99824700  0.00158111  1
  Pb  Pb81  1  0.00642257  0.49729774  0.99635985  1
  Pb  Pb82  1  0.49497226  0.99561639  0.99686753  1
  Pb  Pb83  1  0.50984293  0.49789888  0.00436191  1
  C  C84  1  0.12787593  0.13538024  0.52983859  1
  C  C85  1  0.18417701  0.21444742  0.58021877  1
  C  C86  1  0.16876948  0.21531369  0.66304212  1
  C  C87  1  0.21905346  0.28943796  0.71068462  1
  C  C88  1  0.20421018  0.28518731  0.79977735  1
  C  C89  1  0.28394505  0.36630727  0.67471106  1
  C  C90  1  0.30076063  0.36593530  0.59233880  1
  C  C91  1  0.25284485  0.28982817  0.54493748  1
  C  C92  1  0.27363988  0.28827053  0.45750338  1
  C  C93  1  0.33939917  0.20937074  0.42447277  1
  C  C94  1  0.35873201  0.20711967  0.34251279  1
  C  C95  1  0.31261049  0.28377802  0.29198050  1
  C  C96  1  0.33776587  0.28488095  0.20432294  1
  C  C97  1  0.24622440  0.36196182  0.32465082  1
  C  C98  1  0.22689773  0.36413226  0.40671333  1
  C  C99  1  0.12236021  0.85770579  0.52926834  1
  C  C100  1  0.20814193  0.80764195  0.57972624  1
  C  C101  1  0.21159673  0.82582047  0.66186469  1
  C  C102  1  0.29049096  0.77966307  0.70984564  1
  C  C103  1  0.28850832  0.79647276  0.79842305  1
  C  C104  1  0.36932817  0.71565357  0.67494289  1
  C  C105  1  0.36790998  0.69811925  0.59298963  1
  C  C106  1  0.28785295  0.74268065  0.54514895  1
  C  C107  1  0.28752274  0.72275211  0.45796620  1
  C  C108  1  0.20909256  0.65932210  0.42466032  1
  C  C109  1  0.20826756  0.64149231  0.34286145  1
  C  C110  1  0.28580731  0.68688284  0.29257461  1
  C  C111  1  0.28794993  0.66328284  0.20510578  1
  C  C112  1  0.36409361  0.75038345  0.32552853  1
  C  C113  1  0.36476320  0.76816745  0.40748304  1
  C  C114  1  0.87656488  0.36359321  0.47076811  1
  C  C115  1  0.79448420  0.31136688  0.42002873  1
  C  C116  1  0.79274056  0.32898329  0.33730018  1
  C  C117  1  0.71721386  0.28108105  0.28919471  1
  C  C118  1  0.71870696  0.29864381  0.20033885  1
  C  C119  1  0.64110001  0.21469622  0.32429282  1
  C  C120  1  0.64093211  0.19714175  0.40651094  1
  C  C121  1  0.71674389  0.24450835  0.45466494  1
  C  C122  1  0.71455299  0.22349049  0.54216521  1
  C  C123  1  0.78959856  0.15425427  0.57665740  1
  C  C124  1  0.78855938  0.13455718  0.65867608  1
  C  C125  1  0.71293649  0.18470755  0.70785253  1
  C  C126  1  0.71208380  0.16338659  0.79615303  1
  C  C127  1  0.63677438  0.25259601  0.67354788  1
  C  C128  1  0.63754334  0.27166008  0.59132354  1
  C  C129  1  0.63236874  0.87803035  0.47173091  1
  C  C130  1  0.68635594  0.79492572  0.42128177  1
  C  C131  1  0.66990777  0.79247496  0.33876976  1
  C  C132  1  0.71750477  0.71492829  0.29080831  1
  C  C133  1  0.70001627  0.71538652  0.20224148  1
  C  C134  1  0.78240853  0.63716824  0.32610355  1
  C  C135  1  0.79999847  0.63869997  0.40798418  1
  C  C136  1  0.75299969  0.71660213  0.45597000  1
  C  C137  1  0.77352510  0.71518363  0.54324092  1
  C  C138  1  0.84095259  0.79010487  0.57652465  1
  C  C139  1  0.86131187  0.78855222  0.65812141  1
  C  C140  1  0.81289315  0.71304386  0.70843262  1
  C  C141  1  0.83609833  0.71064816  0.79606251  1
  C  C142  1  0.74594323  0.63756892  0.67547314  1
  C  C143  1  0.72691837  0.63843997  0.59355848  1
  I  I144  1  0.24349263  0.00666569  0.00892290  1
  I  I145  1  0.25516094  0.53099925  0.00779177  1
  I  I146  1  0.74463706  0.01650866  0.99341130  1
  I  I147  1  0.75701770  0.51489002  0.98737069  1
  I  I148  1  0.98476440  0.24994050  0.00370251  1
  I  I149  1  0.98427127  0.75159060  0.99402374  1
  I  I150  1  0.47263836  0.24951774  0.00540665  1
  I  I151  1  0.50280531  0.75032537  0.99307453  1
  I  I152  1  0.99592133  0.00180657  0.80864949  1
  I  I153  1  0.97663360  0.99212578  0.19453580  1
  I  I154  1  0.02560213  0.50470389  0.80644644  1
  I  I155  1  0.00451246  0.51579489  0.19002154  1
  I  I156  1  0.47487241  0.00725547  0.80562967  1
  I  I157  1  0.49736090  0.99572285  0.19054344  1
  I  I158  1  0.50491251  0.48193130  0.80996353  1
  I  I159  1  0.51996119  0.49922632  0.19240836  1
  N  N160  1  0.29392816  0.22383181  0.83903053  1
  N  N161  1  0.26491307  0.21502049  0.15718545  1
  N  N162  1  0.22826447  0.70831664  0.84059500  1
  N  N163  1  0.21642793  0.73610407  0.15629699  1
  N  N164  1  0.77838320  0.20952044  0.15912795  1
  N  N165  1  0.78229420  0.23887641  0.84098083  1
  N  N166  1  0.78841576  0.77344098  0.15823522  1
  N  N167  1  0.76145514  0.78069669  0.84453015  1
