# generated using pymatgen
data_H18PbC13S(I2N)2
_symmetry_space_group_name_H-M   'P 1'
_cell_length_a   12.81652689
_cell_length_b   12.30306226
_cell_length_c   16.33563418
_cell_angle_alpha   90.33431620
_cell_angle_beta   90.96896162
_cell_angle_gamma   88.21642423
_symmetry_Int_Tables_number   1
_chemical_formula_structural   H18PbC13S(I2N)2
_chemical_formula_sum   'H72 Pb4 C52 S4 I16 N8'
_cell_volume   2574.19168537
_cell_formula_units_Z   4
loop_
 _symmetry_equiv_pos_site_id
 _symmetry_equiv_pos_as_xyz
  1  'x, y, z'
loop_
 _atom_site_type_symbol
 _atom_site_label
 _atom_site_symmetry_multiplicity
 _atom_site_fract_x
 _atom_site_fract_y
 _atom_site_fract_z
 _atom_site_occupancy
  H  H0  1  0.39491553  0.45235393  0.55717187  1
  H  H1  1  0.36799779  0.38652404  0.46173346  1
  H  H2  1  0.26858946  0.46190622  0.51206097  1
  H  H3  1  0.37027373  0.36646373  0.68346336  1
  H  H4  1  0.36191194  0.11936203  0.80575216  1
  H  H5  1  0.39865509  0.25836971  0.80348321  1
  H  H6  1  0.18234899  0.18388344  0.82798275  1
  H  H7  1  0.26539120  0.22100997  0.90162450  1
  H  H8  1  0.22224665  0.31374073  0.83410309  1
  H  H9  1  0.24617015  0.04518809  0.69135735  1
  H  H10  1  0.20056619  0.05769051  0.54333801  1
  H  H11  1  0.09683910  0.34449061  0.44997667  1
  H  H12  1  0.22228672  0.10806426  0.19196543  1
  H  H13  1  0.35529686  0.12166164  0.22252691  1
  H  H14  1  0.34245623  0.31279270  0.17342094  1
  H  H15  1  0.21844286  0.29457461  0.14446993  1
  H  H16  1  0.31117785  0.21946811  0.10026451  1
  H  H17  1  0.35502874  0.12415993  0.38317261  1
  H  H18  1  0.45281926  0.62031237  0.55269179  1
  H  H19  1  0.38315996  0.64050687  0.45849601  1
  H  H20  1  0.44404451  0.75111229  0.50699758  1
  H  H21  1  0.36945547  0.63715247  0.67949302  1
  H  H22  1  0.13511454  0.64559716  0.80611388  1
  H  H23  1  0.26910582  0.60244088  0.79965298  1
  H  H24  1  0.18964605  0.82955640  0.83090273  1
  H  H25  1  0.25024051  0.74400916  0.89792651  1
  H  H26  1  0.31634442  0.79416476  0.82091960  1
  H  H27  1  0.04968999  0.75286679  0.69110452  1
  H  H28  1  0.05401474  0.80217976  0.54351828  1
  H  H29  1  0.31805882  0.92668528  0.45458429  1
  H  H30  1  0.11286663  0.80197057  0.18605010  1
  H  H31  1  0.10785760  0.66612670  0.22328503  1
  H  H32  1  0.29450311  0.64145167  0.18388252  1
  H  H33  1  0.29123640  0.76595999  0.14467957  1
  H  H34  1  0.21353836  0.67396448  0.10561446  1
  H  H35  1  0.12817512  0.65406363  0.37938522  1
  H  H36  1  0.53491015  0.11298828  0.44256421  1
  H  H37  1  0.60297623  0.13365165  0.53718992  1
  H  H38  1  0.53325938  0.24303899  0.49049071  1
  H  H39  1  0.61715029  0.13972927  0.31532912  1
  H  H40  1  0.85267560  0.14453218  0.19285577  1
  H  H41  1  0.71645657  0.11767203  0.19182314  1
  H  H42  1  0.80684433  0.33924640  0.17929215  1
  H  H43  1  0.76585842  0.26375103  0.10125308  1
  H  H44  1  0.67931573  0.30961454  0.17030776  1
  H  H45  1  0.93188664  0.25053247  0.30956005  1
  H  H46  1  0.92336785  0.29402328  0.45842617  1
  H  H47  1  0.65394108  0.42259703  0.54416246  1
  H  H48  1  0.88363997  0.31769653  0.80760997  1
  H  H49  1  0.88820330  0.17742896  0.77875548  1
  H  H50  1  0.71126548  0.16366455  0.82850609  1
  H  H51  1  0.70134648  0.29653346  0.84749969  1
  H  H52  1  0.78970138  0.21990380  0.90011301  1
  H  H53  1  0.86245676  0.15329893  0.62019710  1
  H  H54  1  0.89845871  0.53461071  0.44107163  1
  H  H55  1  0.88021960  0.60259851  0.53712498  1
  H  H56  1  0.77544986  0.53821477  0.48831087  1
  H  H57  1  0.87297774  0.62870391  0.31645584  1
  H  H58  1  0.85326835  0.87943882  0.19510040  1
  H  H59  1  0.89688918  0.74061782  0.19694398  1
  H  H60  1  0.67447990  0.81729959  0.17481827  1
  H  H61  1  0.75610477  0.77623943  0.10077433  1
  H  H62  1  0.72124934  0.68656282  0.16986649  1
  H  H63  1  0.74799328  0.95779333  0.31194528  1
  H  H64  1  0.70902850  0.94536531  0.45951170  1
  H  H65  1  0.60665062  0.66122672  0.53982592  1
  H  H66  1  0.70066167  0.89642611  0.80569796  1
  H  H67  1  0.83656783  0.88276108  0.78242262  1
  H  H68  1  0.83189138  0.69274675  0.83174043  1
  H  H69  1  0.70587101  0.71155724  0.85446085  1
  H  H70  1  0.79290543  0.78724628  0.90272641  1
  H  H71  1  0.85170674  0.87369476  0.62498266  1
  Pb  Pb72  1  0.01765585  1.00127562  1.00148071  1
  Pb  Pb73  1  0.97974079  0.49917919  0.99562735  1
  Pb  Pb74  1  0.50855157  0.97870929  0.99852864  1
  Pb  Pb75  1  0.48666717  0.49384536  0.00302549  1
  C  C76  1  0.33676409  0.40678844  0.52238029  1
  C  C77  1  0.30865296  0.30677072  0.56874117  1
  C  C78  1  0.33182931  0.29915558  0.65249828  1
  C  C79  1  0.30906721  0.20662911  0.69746570  1
  C  C80  1  0.33695991  0.20188729  0.78703776  1
  C  C81  1  0.26300516  0.11861311  0.65751758  1
  C  C82  1  0.23821470  0.12537248  0.57422506  1
  C  C83  1  0.25996586  0.21875144  0.52947432  1
  C  C84  1  0.23118826  0.22772063  0.44139681  1
  C  C85  1  0.14951077  0.29401097  0.41350925  1
  C  C86  1  0.24576447  0.20650369  0.29948132  1
  C  C87  1  0.27908736  0.16474615  0.21801690  1
  C  C88  1  0.28649932  0.17788844  0.37522596  1
  C  C89  1  0.40104524  0.67692680  0.51848398  1
  C  C90  1  0.30396701  0.70106924  0.56647797  1
  C  C91  1  0.30062599  0.67496122  0.64955556  1
  C  C92  1  0.21080458  0.69495915  0.69545190  1
  C  C93  1  0.21230145  0.66851162  0.78516721  1
  C  C94  1  0.12105893  0.73937346  0.65658814  1
  C  C95  1  0.12333400  0.76643318  0.57386096  1
  C  C96  1  0.21447888  0.74947889  0.52861756  1
  C  C97  1  0.21926622  0.78269505  0.44165869  1
  C  C98  1  0.27455931  0.87079059  0.41635430  1
  C  C99  1  0.19645759  0.77207896  0.29942665  1
  C  C100  1  0.15784594  0.73656089  0.21763641  1
  C  C101  1  0.17462776  0.72626982  0.37384375  1
  C  C102  1  0.58239114  0.17022510  0.47763844  1
  C  C103  1  0.67839693  0.19734218  0.43093719  1
  C  C104  1  0.68360225  0.17600390  0.34678028  1
  C  C105  1  0.77283579  0.19723207  0.30209376  1
  C  C106  1  0.77534193  0.17578199  0.21156280  1
  C  C107  1  0.86051945  0.23754617  0.34304556  1
  C  C108  1  0.85602796  0.26082766  0.42638707  1
  C  C109  1  0.76524512  0.24342102  0.47061075  1
  C  C110  1  0.76021481  0.27792456  0.55761928  1
  C  C111  1  0.70251290  0.36880048  0.58227786  1
  C  C112  1  0.79488260  0.27985761  0.69858512  1
  C  C113  1  0.83800806  0.25146178  0.78086838  1
  C  C114  1  0.81293275  0.22661175  0.62526693  1
  C  C115  1  0.84451488  0.58624912  0.47682152  1
  C  C116  1  0.81608193  0.68974368  0.43167024  1
  C  C117  1  0.83634476  0.69807163  0.34814192  1
  C  C118  1  0.81130948  0.79284586  0.30408454  1
  C  C119  1  0.83325134  0.79743670  0.21418287  1
  C  C120  1  0.76693372  0.88281546  0.34493709  1
  C  C121  1  0.74562053  0.87596501  0.42802684  1
  C  C122  1  0.76853004  0.78004230  0.47166571  1
  C  C123  1  0.73749589  0.77129299  0.55825315  1
  C  C124  1  0.65544871  0.70846127  0.58044338  1
  C  C125  1  0.73642795  0.79747929  0.70010880  1
  C  C126  1  0.76240248  0.84027131  0.78306954  1
  C  C127  1  0.78442095  0.82188664  0.62778855  1
  S  S128  1  0.13871964  0.29366175  0.30913963  1
  S  S129  1  0.27021474  0.88612431  0.31256185  1
  S  S130  1  0.71560586  0.39449690  0.68445565  1
  S  S131  1  0.63231912  0.71402700  0.68289949  1
  I  I132  1  0.26008907  0.03901493  0.00490783  1
  I  I133  1  0.22729927  0.46727028  0.98917521  1
  I  I134  1  0.75869095  0.97159557  0.99178620  1
  I  I135  1  0.72691375  0.54434937  0.00772325  1
  I  I136  1  0.93771911  0.24712750  -0.00242697  1
  I  I137  1  1.01147399  0.74828438  0.01484717  1
  I  I138  1  0.51661521  0.23626016  0.99238877  1
  I  I139  1  0.42585672  0.74100499  0.01442271  1
  I  I140  1  0.05023135  0.99740557  0.80001892  1
  I  I141  1  0.02923976  0.01941041  0.19106069  1
  I  I142  1  0.94880986  0.53372374  0.80145065  1
  I  I143  1  0.95703258  0.48142890  0.19139361  1
  I  I144  1  0.48046355  0.92789723  0.80688338  1
  I  I145  1  0.53431866  0.96487235  0.19576787  1
  I  I146  1  0.48675345  0.49478857  0.81357178  1
  I  I147  1  0.44964636  0.47455586  0.20596911  1
  N  N148  1  0.24514550  0.23315713  0.84055594  1
  N  N149  1  0.28853470  0.25361404  0.15566110  1
  N  N150  1  0.24387835  0.76501664  0.83681420  1
  N  N151  1  0.24450004  0.70251418  0.16036679  1
  N  N152  1  0.75430796  0.27887209  0.16291024  1
  N  N153  1  0.75347166  0.23120960  0.84254932  1
  N  N154  1  0.73988060  0.76662905  0.16204362  1
  N  N155  1  0.77412848  0.75215250  0.84659644  1
