# generated using pymatgen
data_H18PbC13S(I2N)2
_symmetry_space_group_name_H-M   'P 1'
_cell_length_a   12.66880235
_cell_length_b   12.38963748
_cell_length_c   16.42573756
_cell_angle_alpha   90.21687854
_cell_angle_beta   90.40005196
_cell_angle_gamma   87.79417752
_symmetry_Int_Tables_number   1
_chemical_formula_structural   H18PbC13S(I2N)2
_chemical_formula_sum   'H72 Pb4 C52 S4 I16 N8'
_cell_volume   2576.22527465
_cell_formula_units_Z   4
loop_
 _symmetry_equiv_pos_site_id
 _symmetry_equiv_pos_as_xyz
  1  'x, y, z'
loop_
 _atom_site_type_symbol
 _atom_site_label
 _atom_site_symmetry_multiplicity
 _atom_site_fract_x
 _atom_site_fract_y
 _atom_site_fract_z
 _atom_site_occupancy
  H  H0  1  0.15995492  0.06504948  0.50460426  1
  H  H1  1  0.08779865  0.18234320  0.47320393  1
  H  H2  1  0.04393032  0.10658468  0.55758364  1
  H  H3  1  0.34827486  0.39453188  0.77914897  1
  H  H4  1  0.21290785  0.38640057  0.80999553  1
  H  H5  1  0.34065276  0.29192575  0.89772066  1
  H  H6  1  0.24940500  0.21134006  0.86363839  1
  H  H7  1  0.36879800  0.19904491  0.82375814  1
  H  H8  1  0.36956726  0.37556227  0.62648628  1
  H  H9  1  0.23178954  0.44142207  0.46085580  1
  H  H10  1  0.27434155  0.44936949  0.31455815  1
  H  H11  1  0.38483868  0.37395372  0.20130063  1
  H  H12  1  0.43102504  0.23695609  0.20245628  1
  H  H13  1  0.29096687  0.27409407  0.10560283  1
  H  H14  1  0.25889227  0.17979306  0.17155063  1
  H  H15  1  0.20505674  0.30741399  0.17895602  1
  H  H16  1  0.40235513  0.12245236  0.32289087  1
  H  H17  1  0.36008286  0.11462941  0.47044465  1
  H  H18  1  0.03017564  0.80306021  0.52063240  1
  H  H19  1  0.12354879  0.88650502  0.47544557  1
  H  H20  1  0.05560522  0.92913020  0.56537338  1
  H  H21  1  0.40599701  0.66528584  0.77989009  1
  H  H22  1  0.36949164  0.80005160  0.80997904  1
  H  H23  1  0.29981160  0.67297604  0.89922489  1
  H  H24  1  0.19882962  0.73768491  0.85372104  1
  H  H25  1  0.23046103  0.61195232  0.82529013  1
  H  H26  1  0.39420940  0.64649678  0.62115603  1
  H  H27  1  0.43599077  0.75641988  0.46309100  1
  H  H28  1  0.44772936  0.71705254  0.31519982  1
  H  H29  1  0.37515411  0.62173526  0.19663195  1
  H  H30  1  0.24487581  0.57167579  0.19914700  1
  H  H31  1  0.26367774  0.71243691  0.10146068  1
  H  H32  1  0.17435876  0.75082402  0.17057755  1
  H  H33  1  0.29591553  0.80209864  0.17267419  1
  H  H34  1  0.12714439  0.61273473  0.31546390  1
  H  H35  1  0.11634847  0.65045865  0.46349248  1
  H  H36  1  0.96294903  0.33294331  0.47525017  1
  H  H37  1  0.85661597  0.39832929  0.52729309  1
  H  H38  1  0.91022138  0.45807803  0.43921934  1
  H  H39  1  0.59786729  0.16344252  0.22724272  1
  H  H40  1  0.62820424  0.29203212  0.18639123  1
  H  H41  1  0.70317405  0.13571416  0.11214400  1
  H  H42  1  0.79407585  0.22025809  0.13957651  1
  H  H43  1  0.78587753  0.10476872  0.19001104  1
  H  H44  1  0.61658657  0.15040349  0.38052814  1
  H  H45  1  0.56103369  0.27033535  0.53623067  1
  H  H46  1  0.54818779  0.21896761  0.68182436  1
  H  H47  1  0.62345842  0.11713813  0.79833842  1
  H  H48  1  0.75533165  0.06123441  0.79474027  1
  H  H49  1  0.73886320  0.20143696  0.89418792  1
  H  H50  1  0.82046130  0.23913161  0.82217544  1
  H  H51  1  0.69651990  0.29329770  0.82503394  1
  H  H52  1  0.87331102  0.10378809  0.68008777  1
  H  H53  1  0.88517308  0.15440311  0.53384626  1
  H  H54  1  0.65845216  0.97221511  0.47806392  1
  H  H55  1  0.59567989  0.86402830  0.52505814  1
  H  H56  1  0.53923154  0.92509346  0.43602453  1
  H  H57  1  0.85339766  0.60791475  0.22504720  1
  H  H58  1  0.72080896  0.62457634  0.19055244  1
  H  H59  1  0.84108572  0.71157544  0.10436020  1
  H  H60  1  0.75625090  0.80231674  0.14193105  1
  H  H61  1  0.87827636  0.79981501  0.17886166  1
  H  H62  1  0.85724344  0.61774161  0.38175078  1
  H  H63  1  0.72799960  0.56648895  0.54184108  1
  H  H64  1  0.78132043  0.55336798  0.68751330  1
  H  H65  1  0.88927209  0.62299990  0.79980898  1
  H  H66  1  0.94798759  0.75140121  0.79162024  1
  H  H67  1  0.81349298  0.74030334  0.89673268  1
  H  H68  1  0.78900206  0.84059377  0.83080734  1
  H  H69  1  0.72127445  0.72594194  0.82637237  1
  H  H70  1  0.89559947  0.87630391  0.67824219  1
  H  H71  1  0.84021627  0.88988909  0.53310684  1
  Pb  Pb72  1  -0.00494395  0.99860916  0.00805006  1
  Pb  Pb73  1  0.01850524  0.47005710  0.99802143  1
  Pb  Pb74  1  0.47378965  0.98736895  0.99381810  1
  Pb  Pb75  1  0.54230413  0.49310724  0.99495438  1
  C  C76  1  0.11388413  0.13576062  0.52705951  1
  C  C77  1  0.17821483  0.20277467  0.58299428  1
  C  C78  1  0.25618303  0.29631988  0.70215598  1
  C  C79  1  0.28117643  0.34131604  0.78364529  1
  C  C80  1  0.30418622  0.32111569  0.62987975  1
  C  C81  1  0.25989958  0.26792978  0.56150402  1
  C  C82  1  0.29274483  0.27712364  0.47563877  1
  C  C83  1  0.26993837  0.37160844  0.43102187  1
  C  C84  1  0.29366283  0.37584723  0.34844337  1
  C  C85  1  0.34070883  0.28636753  0.30861611  1
  C  C86  1  0.36511323  0.29209879  0.21946227  1
  C  C87  1  0.36535940  0.19253938  0.35332164  1
  C  C88  1  0.34139805  0.18803849  0.43587986  1
  C  C89  1  0.09272021  0.85954890  0.53402831  1
  C  C90  1  0.17874203  0.80775441  0.58481865  1
  C  C91  1  0.29280653  0.74440223  0.70064362  1
  C  C92  1  0.34016486  0.72553412  0.78253927  1
  C  C93  1  0.32622177  0.70258452  0.62693795  1
  C  C94  1  0.26139030  0.73858467  0.56013343  1
  C  C95  1  0.27438735  0.70850320  0.47352880  1
  C  C96  1  0.36810550  0.72496194  0.43088113  1
  C  C97  1  0.37434143  0.70387657  0.34745487  1
  C  C98  1  0.28693633  0.66593783  0.30471456  1
  C  C99  1  0.29349718  0.64031874  0.21541568  1
  C  C100  1  0.19402355  0.64693015  0.34741867  1
  C  C101  1  0.18823710  0.66741796  0.43057827  1
  C  C102  1  0.88906574  0.38127037  0.46653984  1
  C  C103  1  0.81108952  0.32310943  0.41515924  1
  C  C104  1  0.70636453  0.24939148  0.29961451  1
  C  C105  1  0.66085179  0.22079177  0.21919791  1
  C  C106  1  0.67757083  0.20930332  0.37385541  1
  C  C107  1  0.73688398  0.25073894  0.44015606  1
  C  C108  1  0.72505576  0.21768537  0.52576983  1
  C  C109  1  0.62948421  0.23367735  0.56772368  1
  C  C110  1  0.62248461  0.20533042  0.64957611  1
  C  C111  1  0.71052982  0.16005060  0.69104042  1
  C  C112  1  0.70450451  0.13222832  0.77972827  1
  C  C113  1  0.80509809  0.14116542  0.64863924  1
  C  C114  1  0.81200645  0.16969361  0.56710109  1
  C  C115  1  0.61385682  0.89930699  0.46569615  1
  C  C116  1  0.67584292  0.81903342  0.41480612  1
  C  C117  1  0.75772805  0.71358423  0.29958710  1
  C  C118  1  0.78675071  0.66675152  0.21889025  1
  C  C119  1  0.79619178  0.68139379  0.37453066  1
  C  C120  1  0.74997624  0.74111470  0.44066568  1
  C  C121  1  0.78097173  0.72909212  0.52730385  1
  C  C122  1  0.76516212  0.63430675  0.57158958  1
  C  C123  1  0.79482770  0.62705407  0.65350088  1
  C  C124  1  0.84180155  0.71425749  0.69247300  1
  C  C125  1  0.87609445  0.70698909  0.77999598  1
  C  C126  1  0.85758253  0.80888672  0.64849012  1
  C  C127  1  0.82684760  0.81635211  0.56718121  1
  S  S128  1  0.15499588  0.20902403  0.68587932  1
  S  S129  1  0.18410105  0.83135990  0.68787770  1
  S  S130  1  0.80464047  0.34124883  0.31121193  1
  S  S131  1  0.66165921  0.81551286  0.31031803  1
  I  I132  1  0.22441096  0.08114245  -0.00008147  1
  I  I133  1  0.27673502  0.45895280  0.99899155  1
  I  I134  1  0.72807672  0.95004391  0.99723433  1
  I  I135  1  0.77904384  0.56965083  0.99447866  1
  I  I136  1  0.90730162  0.24498166  0.01278650  1
  I  I137  1  0.05621718  0.73861713  0.99216835  1
  I  I138  1  0.53254950  0.23542093  0.00903487  1
  I  I139  1  0.44266399  0.73415079  -0.00274054  1
  I  I140  1  0.97880248  -0.00063828  0.81889869  1
  I  I141  1  0.96524018  0.97506140  0.20819211  1
  I  I142  1  -0.00065593  0.42837916  0.80932011  1
  I  I143  1  0.04827264  0.45410855  0.19455044  1
  I  I144  1  0.44187153  0.00646872  0.79950127  1
  I  I145  1  0.43625101  0.96983030  0.18745168  1
  I  I146  1  0.56898409  0.46623080  0.79602469  1
  I  I147  1  0.55755815  0.50505718  0.18401848  1
  N  N148  1  0.31236012  0.25593437  0.84519876  1
  N  N149  1  0.27363237  0.26074877  0.16623107  1
  N  N150  1  0.26170559  0.68388606  0.84294560  1
  N  N151  1  0.25356508  0.73279773  0.16226118  1
  N  N152  1  0.74052101  0.16687826  0.16293462  1
  N  N153  1  0.74265666  0.22235625  0.83338145  1
  N  N154  1  0.81833870  0.75016421  0.15809183  1
  N  N155  1  0.79419267  0.75753571  0.83644368  1
