# generated using pymatgen
data_H18PbC13S(I2N)2
_symmetry_space_group_name_H-M   'P 1'
_cell_length_a   12.16349000
_cell_length_b   12.20681361
_cell_length_c   16.88158946
_cell_angle_alpha   90.56708013
_cell_angle_beta   90.71313313
_cell_angle_gamma   89.34683141
_symmetry_Int_Tables_number   1
_chemical_formula_structural   H18PbC13S(I2N)2
_chemical_formula_sum   'H72 Pb4 C52 S4 I16 N8'
_cell_volume   2506.05914759
_cell_formula_units_Z   4
loop_
 _symmetry_equiv_pos_site_id
 _symmetry_equiv_pos_as_xyz
  1  'x, y, z'
loop_
 _atom_site_type_symbol
 _atom_site_label
 _atom_site_symmetry_multiplicity
 _atom_site_fract_x
 _atom_site_fract_y
 _atom_site_fract_z
 _atom_site_occupancy
  H  H0  1  0.12041657  0.11409486  0.32780331  1
  H  H1  1  0.21345213  0.04777773  0.39342425  1
  H  H2  1  0.11156452  0.13782507  0.43164578  1
  H  H3  1  0.30826090  0.09928380  0.53858795  1
  H  H4  1  0.26621314  0.08448954  0.68135772  1
  H  H5  1  0.10149273  0.28832416  0.79238724  1
  H  H6  1  0.16214214  0.15536690  0.79510923  1
  H  H7  1  0.28534355  0.36294543  0.82131857  1
  H  H8  1  0.23456035  0.28227961  0.89170517  1
  H  H9  1  0.33432365  0.23461466  0.83255511  1
  H  H10  1  0.14653805  0.41810189  0.68347805  1
  H  H11  1  0.19062850  0.43353836  0.54071637  1
  H  H12  1  0.38797233  0.42726660  0.46439659  1
  H  H13  1  0.34673038  0.18370461  0.19938331  1
  H  H14  1  0.20779799  0.15759173  0.22163633  1
  H  H15  1  0.20895133  0.28079215  0.11576465  1
  H  H16  1  0.30135385  0.36338751  0.15861281  1
  H  H17  1  0.17230131  0.35926439  0.19337592  1
  H  H18  1  0.10569586  0.86708053  0.32972036  1
  H  H19  1  0.04705247  0.76783323  0.39138213  1
  H  H20  1  0.12472303  0.87564790  0.43407467  1
  H  H21  1  0.10528259  0.69398539  0.53727194  1
  H  H22  1  0.08791918  0.73360893  0.68054108  1
  H  H23  1  0.28952422  0.89272180  0.79880002  1
  H  H24  1  0.15547638  0.83683746  0.79776819  1
  H  H25  1  0.35963017  0.70050341  0.81921163  1
  H  H26  1  0.28414391  0.75767742  0.89255231  1
  H  H27  1  0.22972484  0.66278028  0.83258382  1
  H  H28  1  0.41809684  0.85737224  0.68834725  1
  H  H29  1  0.43530383  0.81792307  0.54419034  1
  H  H30  1  0.45020692  0.63644220  0.46504097  1
  H  H31  1  0.19592194  0.64716580  0.20137140  1
  H  H32  1  0.16032458  0.78489227  0.22301698  1
  H  H33  1  0.28192394  0.78640756  0.11593613  1
  H  H34  1  0.37085917  0.69786098  0.15826491  1
  H  H35  1  0.35996232  0.82781441  0.19275199  1
  H  H36  1  0.88695980  0.36690964  0.67557296  1
  H  H37  1  0.95302771  0.27343566  0.61033920  1
  H  H38  1  0.86776984  0.37919434  0.57169287  1
  H  H39  1  0.90144369  0.18424307  0.46172863  1
  H  H40  1  0.91981279  0.22131113  0.31825539  1
  H  H41  1  0.71457134  0.38327429  0.20081829  1
  H  H42  1  0.84949198  0.32581304  0.19992545  1
  H  H43  1  0.64580996  0.19143175  0.18442481  1
  H  H44  1  0.71888955  0.23938935  0.10903613  1
  H  H45  1  0.77637779  0.14960293  0.17222358  1
  H  H46  1  0.59245784  0.35839460  0.31246787  1
  H  H47  1  0.57293387  0.31930177  0.45550183  1
  H  H48  1  0.56571013  0.12112732  0.52782778  1
  H  H49  1  0.80423792  0.13895679  0.79753979  1
  H  H50  1  0.84021327  0.27557693  0.77738157  1
  H  H51  1  0.71765585  0.27650050  0.88426968  1
  H  H52  1  0.62616770  0.19581079  0.83785117  1
  H  H53  1  0.64361770  0.32574375  0.80781875  1
  H  H54  1  0.62884344  0.86948173  0.67190977  1
  H  H55  1  0.71382190  0.93645184  0.60393720  1
  H  H56  1  0.61398067  0.84369441  0.56838743  1
  H  H57  1  0.81115923  0.89083516  0.46282687  1
  H  H58  1  0.76614895  0.91089311  0.31980392  1
  H  H59  1  0.60659938  0.70842576  0.20278039  1
  H  H60  1  0.66078843  0.84336776  0.20389270  1
  H  H61  1  0.79928776  0.64183147  0.18147285  1
  H  H62  1  0.74319639  0.71774834  0.10845555  1
  H  H63  1  0.83620215  0.77187610  0.16992775  1
  H  H64  1  0.64902674  0.57909531  0.31154557  1
  H  H65  1  0.69534572  0.55844358  0.45441848  1
  H  H66  1  0.90550046  0.56727015  0.52948859  1
  H  H67  1  0.86912897  0.80393205  0.79712176  1
  H  H68  1  0.73174256  0.83837294  0.77301928  1
  H  H69  1  0.73324429  0.72044883  0.88288634  1
  H  H70  1  0.81627574  0.62830067  0.83941854  1
  H  H71  1  0.68476187  0.64372686  0.80743735  1
  Pb  Pb72  1  0.98566581  0.00376538  0.00334943  1
  Pb  Pb73  1  1.00579077  0.50046863  0.01881133  1
  Pb  Pb74  1  0.48273974  0.00706880  0.01397850  1
  Pb  Pb75  1  0.51211626  0.50951366  0.98274216  1
  C  C76  1  0.16895372  0.12525808  0.38256133  1
  C  C77  1  0.24642635  0.21951506  0.37786736  1
  C  C78  1  0.28289509  0.28242506  0.44578131  1
  C  C79  1  0.25249680  0.26772721  0.52952514  1
  C  C80  1  0.27230812  0.16928061  0.56998904  1
  C  C81  1  0.24919352  0.16105037  0.65043883  1
  C  C82  1  0.20468288  0.25050102  0.69232191  1
  C  C83  1  0.17582846  0.24061174  0.77817759  1
  C  C84  1  0.18368656  0.34861529  0.65198112  1
  C  C85  1  0.20767156  0.35714431  0.57184608  1
  C  C86  1  0.35034959  0.36724459  0.42502799  1
  C  C87  1  0.28939248  0.25926728  0.30822842  1
  C  C88  1  0.27178994  0.22017647  0.22497275  1
  C  C89  1  0.12019972  0.81861989  0.38343005  1
  C  C90  1  0.22398417  0.75129077  0.37880762  1
  C  C91  1  0.29117727  0.72324877  0.44677706  1
  C  C92  1  0.27257326  0.75199909  0.53069303  1
  C  C93  1  0.17418312  0.72995780  0.56989637  1
  C  C94  1  0.16469795  0.75146611  0.65083527  1
  C  C95  1  0.25249153  0.79563269  0.69463741  1
  C  C96  1  0.24119094  0.82077729  0.78134372  1
  C  C97  1  0.35015961  0.81975137  0.65549182  1
  C  C98  1  0.35969709  0.79822221  0.57477309  1
  C  C99  1  0.38575984  0.66717084  0.42581170  1
  C  C100  1  0.27062191  0.71336506  0.30898621  1
  C  C101  1  0.22786294  0.72458176  0.22602462  1
  C  C102  1  0.87645959  0.32019369  0.62009875  1
  C  C103  1  0.77760066  0.24798187  0.62159741  1
  C  C104  1  0.71560076  0.21759310  0.55169012  1
  C  C105  1  0.73552521  0.24886489  0.46875179  1
  C  C106  1  0.83385407  0.22362092  0.42936318  1
  C  C107  1  0.84415823  0.24401235  0.34861058  1
  C  C108  1  0.75683406  0.29110694  0.30542485  1
  C  C109  1  0.76465625  0.31184215  0.21811997  1
  C  C110  1  0.66016253  0.31965725  0.34509813  1
  C  C111  1  0.64936285  0.29849153  0.42543995  1
  C  C112  1  0.62556604  0.15498656  0.56931065  1
  C  C113  1  0.73187610  0.20587532  0.68962642  1
  C  C114  1  0.77274174  0.21677438  0.77310982  1
  C  C115  1  0.67387464  0.85831124  0.61642084  1
  C  C116  1  0.75574366  0.76611899  0.62032980  1
  C  C117  1  0.79136060  0.70593113  0.55146498  1
  C  C118  1  0.75623163  0.72322839  0.46844626  1
  C  C119  1  0.77439555  0.82278572  0.42999127  1
  C  C120  1  0.74955759  0.83399772  0.34963967  1
  C  C121  1  0.70528069  0.74622181  0.30623798  1
  C  C122  1  0.67789197  0.75799345  0.21987976  1
  C  C123  1  0.68541085  0.64725326  0.34466313  1
  C  C124  1  0.71073930  0.63578853  0.42481302  1
  C  C125  1  0.86573221  0.62406131  0.57025512  1
  C  C126  1  0.80561228  0.72779427  0.68916066  1
  C  C127  1  0.79235585  0.77115982  0.77159953  1
  S  S128  1  0.37243987  0.37063111  0.32587289  1
  S  S129  1  0.39403682  0.64588039  0.32663954  1
  S  S130  1  0.61545488  0.13060773  0.66786144  1
  S  S131  1  0.89495036  0.61985417  0.66897643  1
  I  I132  1  0.24062749  0.90772342  0.00223626  1
  I  I133  1  0.25948871  0.56180906  0.00971670  1
  I  I134  1  0.73644566  0.06303293  0.98434319  1
  I  I135  1  0.76002772  0.41073943  0.00020391  1
  I  I136  1  0.08889125  0.24598156  0.99937938  1
  I  I137  1  0.93297515  0.74788525  1.00057230  1
  I  I138  1  0.43957266  0.25938973  0.00945608  1
  I  I139  1  0.58532221  0.75706569  0.99590159  1
  I  I140  1  0.99189699  0.99904660  0.81612690  1
  I  I141  1  0.94269189  0.00685199  0.19693747  1
  I  I142  1  0.02325876  0.51046956  0.83285152  1
  I  I143  1  0.00945737  0.49903073  0.21346742  1
  I  I144  1  0.46798338  0.03155566  0.82745266  1
  I  I145  1  0.49019158  0.00415686  0.20859437  1
  I  I146  1  0.51202464  0.51846225  0.78342066  1
  I  I147  1  0.51132219  0.50501237  0.16465577  1
  N  N148  1  0.26409153  0.28355201  0.83380688  1
  N  N149  1  0.23682887  0.31177546  0.17051443  1
  N  N150  1  0.28198406  0.72903462  0.83406302  1
  N  N151  1  0.31580942  0.76128770  0.17034090  1
  N  N152  1  0.72302414  0.21714931  0.16824031  1
  N  N153  1  0.68421384  0.25643327  0.82882857  1
  N  N154  1  0.77020572  0.71916326  0.16725802  1
  N  N155  1  0.75397203  0.68525646  0.82853895  1
