# generated using pymatgen
data_H10PbC6(I2N)2
_symmetry_space_group_name_H-M   'P 1'
_cell_length_a   12.44286257
_cell_length_b   12.41179061
_cell_length_c   10.76594615
_cell_angle_alpha   90.05555862
_cell_angle_beta   90.03183012
_cell_angle_gamma   80.39851287
_symmetry_Int_Tables_number   1
_chemical_formula_structural   H10PbC6(I2N)2
_chemical_formula_sum   'H40 Pb4 C24 I16 N8'
_cell_volume   1639.38128152
_cell_formula_units_Z   4
loop_
 _symmetry_equiv_pos_site_id
 _symmetry_equiv_pos_as_xyz
  1  'x, y, z'
loop_
 _atom_site_type_symbol
 _atom_site_label
 _atom_site_symmetry_multiplicity
 _atom_site_fract_x
 _atom_site_fract_y
 _atom_site_fract_z
 _atom_site_occupancy
  H  H0  1  0.20996894  0.23361745  0.81395271  1
  H  H1  1  0.34226331  0.18412841  0.77782049  1
  H  H2  1  0.29824380  0.31956334  0.79746976  1
  H  H3  1  0.23561327  0.08594488  0.61506775  1
  H  H4  1  0.23612917  0.08604004  0.38424402  1
  H  H5  1  0.30031470  0.31964562  0.20364621  1
  H  H6  1  0.34256383  0.18410117  0.22222667  1
  H  H7  1  0.21068251  0.23508315  0.18577663  1
  H  H8  1  0.27493876  0.42582218  0.38496475  1
  H  H9  1  0.27455496  0.42568373  0.61613621  1
  H  H10  1  0.26497671  0.79017523  0.81414424  1
  H  H11  1  0.17989238  0.70102918  0.79679183  1
  H  H12  1  0.31493801  0.65767786  0.77811304  1
  H  H13  1  0.07456215  0.72476117  0.61509384  1
  H  H14  1  0.07498165  0.72469290  0.38387080  1
  H  H15  1  0.31606227  0.65739613  0.22241341  1
  H  H16  1  0.18097687  0.70119245  0.20263676  1
  H  H17  1  0.26643245  0.78998182  0.18617073  1
  H  H18  1  0.41345158  0.76497861  0.38510986  1
  H  H19  1  0.41306340  0.76492533  0.61596434  1
  H  H20  1  0.76669029  0.29025505  0.18628111  1
  H  H21  1  0.81601765  0.15756030  0.22231459  1
  H  H22  1  0.68098139  0.20172665  0.20244096  1
  H  H23  1  0.91353272  0.26491980  0.38525380  1
  H  H24  1  0.91303434  0.26473377  0.61611821  1
  H  H25  1  0.67986379  0.20049953  0.79661002  1
  H  H26  1  0.81496812  0.15769108  0.77814786  1
  H  H27  1  0.76453095  0.29005940  0.81424335  1
  H  H28  1  0.57446723  0.22478318  0.61494203  1
  H  H29  1  0.57498167  0.22489814  0.38371032  1
  H  H30  1  0.71078581  0.73529285  0.18571355  1
  H  H31  1  0.80059928  0.81967144  0.20372216  1
  H  H32  1  0.84261388  0.68407225  0.22229538  1
  H  H33  1  0.77504928  0.92591552  0.38494106  1
  H  H34  1  0.77480656  0.92574968  0.61610745  1
  H  H35  1  0.84244907  0.68422536  0.77779941  1
  H  H36  1  0.79848039  0.81964418  0.79744369  1
  H  H37  1  0.71018393  0.73372678  0.81396757  1
  H  H38  1  0.73566447  0.58607527  0.61507198  1
  H  H39  1  0.73612870  0.58616318  0.38425121  1
  Pb  Pb40  1  1.00552627  0.00115941  0.99923261  1
  Pb  Pb41  1  0.99823492  0.49327672  0.99969369  1
  Pb  Pb42  1  0.49834182  0.99324308  0.00021122  1
  Pb  Pb43  1  0.50539399  0.50124060  0.99927086  1
  C  C44  1  0.25764843  0.25528590  0.62691256  1
  C  C45  1  0.24262763  0.16040824  0.56450503  1
  C  C46  1  0.24288581  0.16050477  0.43517690  1
  C  C47  1  0.25815533  0.25539443  0.37331968  1
  C  C48  1  0.26497864  0.35215864  0.43558061  1
  C  C49  1  0.26474832  0.35205784  0.56514459  1
  C  C50  1  0.24432551  0.74223821  0.62679668  1
  C  C51  1  0.14802054  0.73488478  0.56449437  1
  C  C52  1  0.14825357  0.73487116  0.43491771  1
  C  C53  1  0.24476432  0.74226797  0.37320210  1
  C  C54  1  0.33919693  0.75774833  0.43563225  1
  C  C55  1  0.33897239  0.75773362  0.56499365  1
  C  C56  1  0.74481184  0.24237848  0.37317829  1
  C  C57  1  0.83922504  0.25773292  0.43575527  1
  C  C58  1  0.83894895  0.25762349  0.56504174  1
  C  C59  1  0.74425880  0.24213925  0.62680329  1
  C  C60  1  0.64796452  0.23489553  0.56437815  1
  C  C61  1  0.64824480  0.23497905  0.43484808  1
  C  C62  1  0.75821667  0.75551710  0.37330946  1
  C  C63  1  0.76507220  0.85223728  0.43556699  1
  C  C64  1  0.76491896  0.85215681  0.56513101  1
  C  C65  1  0.75780145  0.75537450  0.62689899  1
  C  C66  1  0.74269486  0.66053068  0.56450660  1
  C  C67  1  0.74292740  0.66060861  0.43515945  1
  I  I68  1  0.26451870  0.91623025  -0.00003818  1
  I  I69  1  0.25329892  0.48660510  0.99738173  1
  I  I70  1  0.75339847  0.98690568  0.99675990  1
  I  I71  1  0.76436989  0.41636882  0.99961388  1
  I  I72  1  0.08443723  0.23509807  0.00091034  1
  I  I73  1  0.01388242  0.74618827  0.00129602  1
  I  I74  1  0.51382385  0.24627132  0.00287961  1
  I  I75  1  0.58460374  0.73512750  0.00050130  1
  I  I76  1  0.98435388  0.01256182  0.70681282  1
  I  I77  1  0.98203652  0.01184375  0.29195977  1
  I  I78  1  0.98740321  0.51653523  0.70730759  1
  I  I79  1  0.98752541  0.51565378  0.29224934  1
  I  I80  1  0.48735340  0.01704016  0.70774928  1
  I  I81  1  0.48748678  0.01488856  0.29262243  1
  I  I82  1  0.48387385  0.51220302  0.70688874  1
  I  I83  1  0.48237789  0.51230973  0.29192377  1
  N  N84  1  0.27698659  0.24853442  0.76157142  1
  N  N85  1  0.27789276  0.24896860  0.23872243  1
  N  N86  1  0.25063757  0.72282994  0.76145301  1
  N  N87  1  0.25166736  0.72276330  0.23856621  1
  N  N88  1  0.75174921  0.22302862  0.23853057  1
  N  N89  1  0.75049418  0.22265303  0.76144003  1
  N  N90  1  0.77799500  0.74905573  0.23870852  1
  N  N91  1  0.77719810  0.74861873  0.76153793  1
