# generated using pymatgen
data_H10PbC6(I2N)2
_symmetry_space_group_name_H-M   'P 1'
_cell_length_a   12.40539009
_cell_length_b   12.40477704
_cell_length_c   10.22003350
_cell_angle_alpha   89.99236243
_cell_angle_beta   89.99151169
_cell_angle_gamma   90.00527922
_symmetry_Int_Tables_number   1
_chemical_formula_structural   H10PbC6(I2N)2
_chemical_formula_sum   'H40 Pb4 C24 I16 N8'
_cell_volume   1572.72104084
_cell_formula_units_Z   4
loop_
 _symmetry_equiv_pos_site_id
 _symmetry_equiv_pos_as_xyz
  1  'x, y, z'
loop_
 _atom_site_type_symbol
 _atom_site_label
 _atom_site_symmetry_multiplicity
 _atom_site_fract_x
 _atom_site_fract_y
 _atom_site_fract_z
 _atom_site_occupancy
  H  H0  1  0.24112339  0.43909048  0.73325741  1
  H  H1  1  0.18011818  0.33222979  0.80017548  1
  H  H2  1  0.31433592  0.33900022  0.79841504  1
  H  H3  1  0.24777208  0.14479034  0.71084924  1
  H  H4  1  0.24867385  0.04494119  0.50003901  1
  H  H5  1  0.24777914  0.14481880  0.28921774  1
  H  H6  1  0.18001863  0.33243437  0.19999347  1
  H  H7  1  0.24130173  0.43913889  0.26684873  1
  H  H8  1  0.31425986  0.33896217  0.20150772  1
  H  H9  1  0.24615313  0.44731230  0.50001571  1
  H  H10  1  0.43908327  0.75885329  0.73315737  1
  H  H11  1  0.33228215  0.81987048  0.80010352  1
  H  H12  1  0.33899020  0.68563879  0.79837327  1
  H  H13  1  0.14477215  0.75225524  0.71080329  1
  H  H14  1  0.04494791  0.75134630  0.49997863  1
  H  H15  1  0.14483594  0.75224612  0.28916996  1
  H  H16  1  0.33231279  0.81986103  0.19985636  1
  H  H17  1  0.43913615  0.75887381  0.26675583  1
  H  H18  1  0.33908165  0.68562806  0.20161531  1
  H  H19  1  0.44728865  0.75384474  0.49999402  1
  H  H20  1  0.56090420  0.24113452  0.26683967  1
  H  H21  1  0.66101908  0.31426001  0.20151458  1
  H  H22  1  0.66767235  0.18001932  0.19996919  1
  H  H23  1  0.85522044  0.24776623  0.28916734  1
  H  H24  1  0.95504997  0.24861423  0.49997744  1
  H  H25  1  0.85518954  0.24770045  0.71079760  1
  H  H26  1  0.66103290  0.31432952  0.79843030  1
  H  H27  1  0.56086724  0.24126804  0.73320449  1
  H  H28  1  0.66758502  0.18008762  0.80008801  1
  H  H29  1  0.55270863  0.24619603  0.50002220  1
  H  H30  1  0.75877156  0.56085820  0.26674892  1
  H  H31  1  0.68570165  0.66104137  0.20157191  1
  H  H32  1  0.81993556  0.66763920  0.19994504  1
  H  H33  1  0.75230078  0.85517210  0.28916102  1
  H  H34  1  0.75141318  0.95503129  0.49995447  1
  H  H35  1  0.75227668  0.85516201  0.71078681  1
  H  H36  1  0.68569593  0.66103797  0.79845597  1
  H  H37  1  0.75874892  0.56084202  0.73326310  1
  H  H38  1  0.81993149  0.66758178  0.80005441  1
  H  H39  1  0.75383588  0.55265252  0.50001605  1
  Pb  Pb40  1  0.99936412  0.99952295  0.00006127  1
  Pb  Pb41  1  0.00058202  0.50010597  1.00000386  1
  Pb  Pb42  1  0.49960424  0.00025523  0.00004938  1
  Pb  Pb43  1  0.50005933  0.50030880  -0.00021719  1
  C  C44  1  0.24810231  0.30058078  0.61618748  1
  C  C45  1  0.24886102  0.18840535  0.61827479  1
  C  C46  1  0.24930774  0.13254314  0.50003525  1
  C  C47  1  0.24887038  0.18842220  0.38177801  1
  C  C48  1  0.24811682  0.30059392  0.38385864  1
  C  C49  1  0.24774466  0.35945306  0.50001830  1
  C  C50  1  0.30055572  0.75191059  0.61615151  1
  C  C51  1  0.18840052  0.75117320  0.61823422  1
  C  C52  1  0.13254089  0.75072969  0.49998493  1
  C  C53  1  0.18843663  0.75115933  0.38174246  1
  C  C54  1  0.30059157  0.75189224  0.38382172  1
  C  C55  1  0.35944472  0.75225788  0.49998777  1
  C  C56  1  0.69942794  0.24809516  0.38383746  1
  C  C57  1  0.81160154  0.24883287  0.38173418  1
  C  C58  1  0.86745885  0.24925024  0.49998251  1
  C  C59  1  0.81158756  0.24880566  0.61824146  1
  C  C60  1  0.69941337  0.24809859  0.61615450  1
  C  C61  1  0.64056988  0.24775107  0.50000473  1
  C  C62  1  0.75191402  0.69938321  0.38384429  1
  C  C63  1  0.75120490  0.81155736  0.38173396  1
  C  C64  1  0.75077775  0.86743378  0.49997213  1
  C  C65  1  0.75120030  0.81155379  0.61822694  1
  C  C66  1  0.75192026  0.69937867  0.61615375  1
  C  C67  1  0.75226624  0.64051506  0.50000809  1
  I  I68  1  0.25422207  0.91854148  0.99993900  1
  I  I69  1  0.25323406  0.57742894  -0.00028564  1
  I  I70  1  0.74547939  0.08132947  -0.00006156  1
  I  I71  1  0.74691510  0.42279459  0.00016355  1
  I  I72  1  0.08128961  0.25435803  1.00002749  1
  I  I73  1  0.91870265  0.74554975  0.99998818  1
  I  I74  1  0.42261520  0.25336823  -0.00008415  1
  I  I75  1  0.57736098  0.74706537  1.00008697  1
  I  I76  1  0.00014083  0.00010224  0.69665117  1
  I  I77  1  0.00011143  0.00011376  0.30342682  1
  I  I78  1  -0.00003018  0.50008932  0.69231986  1
  I  I79  1  0.99999790  0.50000264  0.30764644  1
  I  I80  1  0.49998663  0.99997849  0.69246803  1
  I  I81  1  0.50003565  0.99992856  0.30780914  1
  I  I82  1  0.49990982  0.50002188  0.69038891  1
  I  I83  1  0.49996309  0.49993443  0.30953116  1
  N  N84  1  0.24614527  0.35658486  0.74274813  1
  N  N85  1  0.24615605  0.35664356  0.25729456  1
  N  N86  1  0.35659067  0.75383689  0.74269364  1
  N  N87  1  0.35664280  0.75382844  0.25725987  1
  N  N88  1  0.64340279  0.24611508  0.25728071  1
  N  N89  1  0.64336893  0.24618419  0.74273051  1
  N  N90  1  0.75384279  0.64337250  0.25727344  1
  N  N91  1  0.75383492  0.64335594  0.74274167  1
