# generated using pymatgen
data_H18PbC13(I2N)2
_symmetry_space_group_name_H-M   'P 1'
_cell_length_a   12.60141548
_cell_length_b   12.43972796
_cell_length_c   14.76517882
_cell_angle_alpha   86.34139529
_cell_angle_beta   87.39254687
_cell_angle_gamma   93.21362763
_symmetry_Int_Tables_number   1
_chemical_formula_structural   H18PbC13(I2N)2
_chemical_formula_sum   'H72 Pb4 C52 I16 N8'
_cell_volume   2303.41473987
_cell_formula_units_Z   4
loop_
 _symmetry_equiv_pos_site_id
 _symmetry_equiv_pos_as_xyz
  1  'x, y, z'
loop_
 _atom_site_type_symbol
 _atom_site_label
 _atom_site_symmetry_multiplicity
 _atom_site_fract_x
 _atom_site_fract_y
 _atom_site_fract_z
 _atom_site_occupancy
  H  H0  1  0.24753385  0.96695865  0.36171602  1
  H  H1  1  0.20354686  0.04112455  0.26562254  1
  H  H2  1  0.34148065  0.03694665  0.28271304  1
  H  H3  1  0.23576383  0.04510787  0.49958133  1
  H  H4  1  0.21237252  0.12003858  0.64813298  1
  H  H5  1  0.14309379  0.19146913  0.78249549  1
  H  H6  1  0.13239654  0.33309054  0.79038824  1
  H  H7  1  0.25215186  0.26411175  0.89486250  1
  H  H8  1  0.32928778  0.21151489  0.81427788  1
  H  H9  1  0.32295060  0.34619016  0.81886718  1
  H  H10  1  0.21939409  0.46485031  0.66735670  1
  H  H11  1  0.25730470  0.49388838  0.50154089  1
  H  H12  1  0.28508708  0.41563544  0.34957730  1
  H  H13  1  0.34969189  0.20361697  0.20257051  1
  H  H14  1  0.33633194  0.34379829  0.21261751  1
  H  H15  1  0.16504668  0.18064506  0.17482200  1
  H  H16  1  0.14064944  0.30796474  0.20136997  1
  H  H17  1  0.21630455  0.28671451  0.10965164  1
  H  H18  1  0.97985627  0.74275209  0.36431245  1
  H  H19  1  0.05810264  0.78116886  0.26346974  1
  H  H20  1  0.03698960  0.64284247  0.29954572  1
  H  H21  1  0.06056352  0.76499176  0.50044728  1
  H  H22  1  0.13966138  0.79471381  0.64708248  1
  H  H23  1  0.22878921  0.86695386  0.77804355  1
  H  H24  1  0.36648672  0.85118836  0.79201087  1
  H  H25  1  0.25175703  0.73249614  0.89433133  1
  H  H26  1  0.19809604  0.66993735  0.80904764  1
  H  H27  1  0.32780653  0.66165030  0.82887454  1
  H  H28  1  0.47909747  0.78452011  0.66965577  1
  H  H29  1  0.50081530  0.74316923  0.50831866  1
  H  H30  1  0.41815936  0.70458109  0.36200420  1
  H  H31  1  0.19388585  0.64603948  0.21658820  1
  H  H32  1  0.32998390  0.62778930  0.23653735  1
  H  H33  1  0.23677348  0.82675642  0.16235598  1
  H  H34  1  0.35789360  0.83046379  0.20513329  1
  H  H35  1  0.33208465  0.75656123  0.11800703  1
  H  H36  1  0.01778374  0.24086256  0.63998298  1
  H  H37  1  0.94824021  0.27999061  0.73821496  1
  H  H38  1  0.94449824  0.14270415  0.71319235  1
  H  H39  1  0.94230826  0.26361384  0.50039134  1
  H  H40  1  0.86833893  0.28896910  0.35046857  1
  H  H41  1  0.78902394  0.35482207  0.20737850  1
  H  H42  1  0.64940884  0.33357661  0.19424255  1
  H  H43  1  0.74483741  0.20746423  0.11456283  1
  H  H44  1  0.80609373  0.15956345  0.20588330  1
  H  H45  1  0.67421413  0.13865934  0.19913822  1
  H  H46  1  0.52840514  0.28225127  0.32597882  1
  H  H47  1  0.49996904  0.25589967  0.49300152  1
  H  H48  1  0.57667074  0.23142029  0.64653687  1
  H  H49  1  0.78855431  0.16296251  0.79837323  1
  H  H50  1  0.64937595  0.17236467  0.78652236  1
  H  H51  1  0.80586081  0.35675974  0.81037670  1
  H  H52  1  0.67600122  0.36845349  0.79053798  1
  H  H53  1  0.70930741  0.30082755  0.88458670  1
  H  H54  1  0.75851863  0.02242167  0.63978996  1
  H  H55  1  0.71639769  0.94167310  0.73927971  1
  H  H56  1  0.85315659  0.95814636  0.70721973  1
  H  H57  1  0.73312482  0.94749447  0.50235109  1
  H  H58  1  0.70788300  0.87549191  0.35319833  1
  H  H59  1  0.64752351  0.79685902  0.21510457  1
  H  H60  1  0.65727006  0.65657937  0.19958003  1
  H  H61  1  0.78608276  0.76782442  0.10633330  1
  H  H62  1  0.84011122  0.82255550  0.19570611  1
  H  H63  1  0.84948492  0.69025736  0.17907275  1
  H  H64  1  0.71507522  0.53302318  0.32378592  1
  H  H65  1  0.74937426  0.50188556  0.48656338  1
  H  H66  1  0.78605683  0.57802886  0.63641323  1
  H  H67  1  0.86112549  0.79287464  0.78113005  1
  H  H68  1  0.85062254  0.65240667  0.76734990  1
  H  H69  1  0.68365530  0.78816191  0.83768077  1
  H  H70  1  0.65223660  0.66520745  0.79873882  1
  H  H71  1  0.73267590  0.67769278  0.88472035  1
  Pb  Pb72  1  0.99679368  0.98443087  0.00376451  1
  Pb  Pb73  1  1.00392331  0.49069570  0.00813214  1
  Pb  Pb74  1  0.49788072  0.00984402  0.99221918  1
  Pb  Pb75  1  0.50585935  0.50160667  1.00190596  1
  C  C76  1  0.26310119  0.04128994  0.31793373  1
  C  C77  1  0.26061609  0.13855023  0.37284449  1
  C  C78  1  0.24594259  0.12623017  0.46625162  1
  C  C79  1  0.24300295  0.21567141  0.52086833  1
  C  C80  1  0.22441503  0.20177614  0.61623690  1
  C  C81  1  0.21612762  0.28965272  0.66841339  1
  C  C82  1  0.18453160  0.27111686  0.76776863  1
  C  C83  1  0.22897532  0.39585992  0.62621046  1
  C  C84  1  0.24885155  0.41205312  0.53354336  1
  C  C85  1  0.25560785  0.32285863  0.47837693  1
  C  C86  1  0.27287086  0.33445851  0.38257193  1
  C  C87  1  0.27556803  0.24559086  0.33061511  1
  C  C88  1  0.29774202  0.26331422  0.22958842  1
  C  C89  1  0.05080657  0.72408345  0.32385554  1
  C  C90  1  0.14782568  0.73055852  0.37898609  1
  C  C91  1  0.13898388  0.75268584  0.46951269  1
  C  C92  1  0.22836757  0.75969018  0.52417311  1
  C  C93  1  0.21848278  0.78202546  0.61697020  1
  C  C94  1  0.30700000  0.78934883  0.66891696  1
  C  C95  1  0.29392800  0.81337458  0.76688616  1
  C  C96  1  0.40957279  0.77587009  0.62873252  1
  C  C97  1  0.42179453  0.75344059  0.53876099  1
  C  C98  1  0.33196626  0.74415531  0.48444941  1
  C  C99  1  0.33986230  0.71953054  0.39207442  1
  C  C100  1  0.25107783  0.71256339  0.34016412  1
  C  C101  1  0.26587385  0.68349898  0.24321751  1
  C  C102  1  0.94430877  0.22568603  0.68230806  1
  C  C103  1  0.84973088  0.24041897  0.62613163  1
  C  C104  1  0.86235050  0.25727877  0.53283315  1
  C  C105  1  0.77413989  0.26474825  0.47713530  1
  C  C106  1  0.78772453  0.27998581  0.38148336  1
  C  C107  1  0.70091098  0.28516993  0.32770951  1
  C  C108  1  0.71853059  0.30069192  0.22630933  1
  C  C109  1  0.59635299  0.27605762  0.36876718  1
  C  C110  1  0.58051537  0.26209792  0.46188458  1
  C  C111  1  0.66851095  0.25580947  0.51841799  1
  C  C112  1  0.65671768  0.24022903  0.61434930  1
  C  C113  1  0.74435003  0.23246670  0.66716352  1
  C  C114  1  0.72805434  0.21238961  0.76839012  1
  C  C115  1  0.77343160  0.94830833  0.68010618  1
  C  C116  1  0.76479442  0.85275827  0.62322967  1
  C  C117  1  0.74372715  0.86647269  0.53233314  1
  C  C118  1  0.73683945  0.77866487  0.47582786  1
  C  C119  1  0.71780423  0.79390929  0.38224712  1
  C  C120  1  0.71230909  0.70743554  0.32779943  1
  C  C121  1  0.69571591  0.72713842  0.22823839  1
  C  C122  1  0.72308363  0.60120446  0.36641642  1
  C  C123  1  0.74157774  0.58375182  0.45737367  1
  C  C124  1  0.75031240  0.67163774  0.51403174  1
  C  C125  1  0.77296570  0.65884478  0.60712321  1
  C  C126  1  0.78087465  0.74617477  0.66062578  1
  C  C127  1  0.80923181  0.72729008  0.75786582  1
  I  I128  1  0.25109198  1.03426076  0.04220692  1
  I  I129  1  0.25683513  0.46632621  0.99390369  1
  I  I130  1  0.74895275  0.94739048  0.96297358  1
  I  I131  1  0.75940563  0.54490864  0.01581732  1
  I  I132  1  -0.01739111  0.23846249  0.97983009  1
  I  I133  1  0.06342701  0.73791526  0.04462940  1
  I  I134  1  0.56155376  0.25528214  0.01147031  1
  I  I135  1  0.46944529  0.75321692  0.97767528  1
  I  I136  1  0.04752006  0.96168966  0.79928855  1
  I  I137  1  0.93592641  0.00449140  0.22512468  1
  I  I138  1  1.01198307  0.52074147  0.79016764  1
  I  I139  1  0.00737791  0.44144684  0.22396052  1
  I  I140  1  0.45104441  0.06906094  0.78428126  1
  I  I141  1  0.53224727  0.97909226  0.20878025  1
  I  I142  1  0.51684209  0.50145827  0.77323545  1
  I  I143  1  0.49290120  0.50310660  0.21052387  1
  N  N144  1  0.27842310  0.27360958  0.82745506  1
  N  N145  1  0.19838952  0.25803560  0.17636815  1
  N  N146  1  0.26574834  0.71252996  0.82810659  1
  N  N147  1  0.29947845  0.78046314  0.17908476  1
  N  N148  1  0.73778253  0.19560027  0.18444414  1
  N  N149  1  0.73157957  0.31667565  0.81601338  1
  N  N150  1  0.79978789  0.75315661  0.17442848  1
  N  N151  1  0.71262284  0.71498976  0.82286681  1
