# generated using pymatgen
data_H14PbC8(I2N)2
_symmetry_space_group_name_H-M   'P 1'
_cell_length_a   12.73649200
_cell_length_b   12.75472527
_cell_length_c   12.27853598
_cell_angle_alpha   89.47932974
_cell_angle_beta   90.25015796
_cell_angle_gamma   89.75579076
_symmetry_Int_Tables_number   1
_chemical_formula_structural   H14PbC8(I2N)2
_chemical_formula_sum   'H56 Pb4 C32 I16 N8'
_cell_volume   1994.53394424
_cell_formula_units_Z   4
loop_
 _symmetry_equiv_pos_site_id
 _symmetry_equiv_pos_as_xyz
  1  'x, y, z'
loop_
 _atom_site_type_symbol
 _atom_site_label
 _atom_site_symmetry_multiplicity
 _atom_site_fract_x
 _atom_site_fract_y
 _atom_site_fract_z
 _atom_site_occupancy
  H  H0  1  0.35609658  0.12514826  0.75554717  1
  H  H1  1  0.26364489  0.12216325  0.85149402  1
  H  H2  1  0.31004107  0.23659032  0.80993909  1
  H  H3  1  0.13320146  0.19693046  0.73795391  1
  H  H4  1  0.18683086  0.08250503  0.67962053  1
  H  H5  1  0.21247181  0.37717900  0.67079293  1
  H  H6  1  0.25760515  0.47563175  0.50261675  1
  H  H7  1  0.30074424  0.38051252  0.33308015  1
  H  H8  1  0.37857293  0.19808954  0.26942739  1
  H  H9  1  0.31735177  0.08476152  0.32265509  1
  H  H10  1  0.21150081  0.24860923  0.18646808  1
  H  H11  1  0.15510672  0.13946747  0.23596125  1
  H  H12  1  0.25430292  0.13209206  0.14684868  1
  H  H13  1  0.25125348  0.08570688  0.49997853  1
  H  H14  1  0.12401168  0.64508212  0.75422192  1
  H  H15  1  0.11974144  0.73786309  0.84905035  1
  H  H16  1  0.23476602  0.68972681  0.81224183  1
  H  H17  1  0.19859831  0.86644345  0.73683120  1
  H  H18  1  0.08358162  0.81567553  0.67672435  1
  H  H19  1  0.37848493  0.78788741  0.67067163  1
  H  H20  1  0.47581773  0.74267690  0.50302789  1
  H  H21  1  0.37935357  0.69871888  0.33363008  1
  H  H22  1  0.19620739  0.62157072  0.26919285  1
  H  H23  1  0.08269160  0.68259750  0.32200674  1
  H  H24  1  0.24475525  0.78526445  0.18378437  1
  H  H25  1  0.13993510  0.84650642  0.23738058  1
  H  H26  1  0.12483182  0.74944017  0.14794467  1
  H  H27  1  0.08524362  0.74806475  0.49944129  1
  H  H28  1  0.86258358  0.16098821  0.23417494  1
  H  H29  1  0.86709685  0.26273035  0.14625503  1
  H  H30  1  0.75195245  0.21682480  0.18572883  1
  H  H31  1  0.80050397  0.38298388  0.27027353  1
  H  H32  1  0.91377165  0.31999870  0.32306043  1
  H  H33  1  0.61738259  0.30008838  0.33302090  1
  H  H34  1  0.52249949  0.25514763  0.50315397  1
  H  H35  1  0.62152014  0.21093413  0.67165551  1
  H  H36  1  0.80335590  0.13415787  0.73933190  1
  H  H37  1  0.91710600  0.18979565  0.68104528  1
  H  H38  1  0.75842413  0.31100599  0.80744769  1
  H  H39  1  0.87144239  0.35709076  0.75594862  1
  H  H40  1  0.87258367  0.26460740  0.85268774  1
  H  H41  1  0.91315443  0.25438353  0.49998736  1
  H  H42  1  0.84176855  0.86289709  0.23541466  1
  H  H43  1  0.74073446  0.87149212  0.14743522  1
  H  H44  1  0.78463149  0.75469050  0.18537131  1
  H  H45  1  0.61918048  0.80236889  0.27103944  1
  H  H46  1  0.68094971  0.91500594  0.32335304  1
  H  H47  1  0.69910513  0.61893815  0.33593779  1
  H  H48  1  0.74414702  0.52299402  0.50681149  1
  H  H49  1  0.79010941  0.62082408  0.67380200  1
  H  H50  1  0.86948654  0.80090789  0.73788988  1
  H  H51  1  0.81571941  0.91538815  0.67751774  1
  H  H52  1  0.69318265  0.76279190  0.81192854  1
  H  H53  1  0.64707317  0.87432001  0.75506759  1
  H  H54  1  0.74074340  0.87731148  0.85030364  1
  H  H55  1  0.74874165  0.91298734  0.49903770  1
  Pb  Pb56  1  0.99533917  0.99873783  0.01452811  1
  Pb  Pb57  1  0.00487782  0.49287360  0.99058861  1
  Pb  Pb58  1  0.49968074  0.98855438  0.98793767  1
  Pb  Pb59  1  0.48878280  0.49069758  0.99328043  1
  C  C60  1  0.20293111  0.16476156  0.69778467  1
  C  C61  1  0.23041126  0.22498477  0.59671720  1
  C  C62  1  0.23144821  0.33475780  0.59663266  1
  C  C63  1  0.25533691  0.39030236  0.50167810  1
  C  C64  1  0.27778533  0.33677813  0.40601811  1
  C  C65  1  0.27494338  0.22697686  0.40469282  1
  C  C66  1  0.30547663  0.16822420  0.30477823  1
  C  C67  1  0.25161744  0.17143570  0.50030457  1
  C  C68  1  0.16558028  0.79751075  0.69652442  1
  C  C69  1  0.22554107  0.76905392  0.59638296  1
  C  C70  1  0.33544519  0.76845477  0.59659123  1
  C  C71  1  0.39030862  0.74467678  0.50184550  1
  C  C72  1  0.33592393  0.72194015  0.40618591  1
  C  C73  1  0.22581900  0.72437459  0.40458186  1
  C  C74  1  0.16606971  0.69438624  0.30443350  1
  C  C75  1  0.17110183  0.74759962  0.49995865  1
  C  C76  1  0.83038141  0.30898303  0.30501539  1
  C  C77  1  0.77141979  0.27626801  0.40465479  1
  C  C78  1  0.66143057  0.27718630  0.40605749  1
  C  C79  1  0.60799688  0.25385478  0.50206419  1
  C  C80  1  0.66386679  0.23067741  0.59723412  1
  C  C81  1  0.77382813  0.23129730  0.59720926  1
  C  C82  1  0.83417942  0.20448556  0.69870428  1
  C  C83  1  0.82730139  0.25351741  0.50049287  1
  C  C84  1  0.69281244  0.83190334  0.30560364  1
  C  C85  1  0.72524061  0.77213806  0.40555408  1
  C  C86  1  0.72305688  0.66232012  0.40822636  1
  C  C87  1  0.74624924  0.60834487  0.50470224  1
  C  C88  1  0.77033935  0.66349333  0.59903358  1
  C  C89  1  0.77075048  0.77325878  0.59766247  1
  C  C90  1  0.79932364  0.83330366  0.69755207  1
  C  C91  1  0.74878785  0.82725036  0.50053576  1
  I  I92  1  0.24633602  0.95062533  0.99986108  1
  I  I93  1  0.25525918  0.58178024  0.00828304  1
  I  I94  1  0.74997696  0.05622157  0.99394421  1
  I  I95  1  0.76312777  0.43849805  0.00908768  1
  I  I96  1  0.05502756  0.24335444  0.98741311  1
  I  I97  1  0.95170357  0.74811973  0.00608249  1
  I  I98  1  0.42512385  0.24805936  0.00775571  1
  I  I99  1  0.57452104  0.75269797  0.00891956  1
  I  I100  1  -0.00048495  0.99762661  0.77268932  1
  I  I101  1  0.99719509  0.00163197  0.29598391  1
  I  I102  1  0.00194856  0.49800593  0.71256745  1
  I  I103  1  0.03332092  0.47092290  0.23506873  1
  I  I104  1  0.50058711  0.99753193  0.70965812  1
  I  I105  1  0.50616438  0.00779966  0.23214151  1
  I  I106  1  0.49726281  0.49522620  0.73818191  1
  I  I107  1  0.50391432  0.50031301  0.25336100  1
  N  N108  1  0.28814168  0.16332322  0.78292691  1
  N  N109  1  0.22594055  0.17310864  0.21334503  1
  N  N110  1  0.16211067  0.71266709  0.78215499  1
  N  N111  1  0.17001259  0.77454136  0.21346931  1
  N  N112  1  0.82708365  0.23175637  0.21257005  1
  N  N113  1  0.83271895  0.28926782  0.78309526  1
  N  N114  1  0.77066198  0.82928995  0.21341809  1
  N  N115  1  0.71526722  0.83570459  0.78305864  1
