# generated using pymatgen
data_H18PbC13S(I2N)2
_symmetry_space_group_name_H-M   'P 1'
_cell_length_a   12.57810434
_cell_length_b   12.67379228
_cell_length_c   16.53244997
_cell_angle_alpha   92.10630423
_cell_angle_beta   92.01158996
_cell_angle_gamma   90.23745421
_symmetry_Int_Tables_number   1
_chemical_formula_structural   H18PbC13S(I2N)2
_chemical_formula_sum   'H72 Pb4 C52 S4 I16 N8'
_cell_volume   2632.03293851
_cell_formula_units_Z   4
loop_
 _symmetry_equiv_pos_site_id
 _symmetry_equiv_pos_as_xyz
  1  'x, y, z'
loop_
 _atom_site_type_symbol
 _atom_site_label
 _atom_site_symmetry_multiplicity
 _atom_site_fract_x
 _atom_site_fract_y
 _atom_site_fract_z
 _atom_site_occupancy
  H  H0  1  0.15531710  0.48628224  0.29074014  1
  H  H1  1  0.28324317  0.46487561  0.24979289  1
  H  H2  1  0.16965200  0.40135210  0.20408307  1
  H  H3  1  0.16065752  0.40716620  0.43119364  1
  H  H4  1  0.17847899  0.06394400  0.51571340  1
  H  H5  1  0.16342710  0.04205909  0.66252722  1
  H  H6  1  0.12058141  0.13987490  0.79388365  1
  H  H7  1  0.16851191  0.27044488  0.81508290  1
  H  H8  1  0.32541952  0.09593389  0.79288151  1
  H  H9  1  0.25976874  0.10977944  0.87820443  1
  H  H10  1  0.33507651  0.20690286  0.85034671  1
  H  H11  1  0.23603170  0.37283644  0.70769631  1
  H  H12  1  0.25260168  0.39447685  0.56056113  1
  H  H13  1  0.39554306  0.17650898  0.22224669  1
  H  H14  1  0.33525854  0.29053702  0.18337635  1
  H  H15  1  0.29211494  0.11061931  0.11605111  1
  H  H16  1  0.20977666  0.09183142  0.19187983  1
  H  H17  1  0.19018798  0.19153924  0.13071311  1
  H  H18  1  0.48003855  0.83869641  0.28976387  1
  H  H19  1  0.45667478  0.70951186  0.24660171  1
  H  H20  1  0.39282462  0.81975139  0.20411244  1
  H  H21  1  0.40545772  0.83422613  0.43314101  1
  H  H22  1  0.05919934  0.82108948  0.52040527  1
  H  H23  1  0.03805505  0.83645410  0.66832023  1
  H  H24  1  0.12617812  0.86383246  0.80433024  1
  H  H25  1  0.26591841  0.84753756  0.81782462  1
  H  H26  1  0.11297521  0.66568631  0.80118568  1
  H  H27  1  0.15881428  0.72075936  0.88801925  1
  H  H28  1  0.24353438  0.66062536  0.82509650  1
  H  H29  1  0.37148968  0.76911650  0.70756828  1
  H  H30  1  0.39220159  0.75063375  0.55976819  1
  H  H31  1  0.15348262  0.61313148  0.21248029  1
  H  H32  1  0.27906789  0.65731419  0.18163733  1
  H  H33  1  0.14027460  0.72082864  0.10050232  1
  H  H34  1  0.07542997  0.77515195  0.17875552  1
  H  H35  1  0.19167187  0.82655868  0.15141778  1
  H  H36  1  0.50610480  0.34333344  0.70930643  1
  H  H37  1  0.53353963  0.21783768  0.75044550  1
  H  H38  1  0.59545422  0.33360597  0.79342505  1
  H  H39  1  0.58815575  0.33605967  0.56533772  1
  H  H40  1  0.93921341  0.32261433  0.48760783  1
  H  H41  1  0.96721493  0.34567384  0.34208504  1
  H  H42  1  0.88882664  0.38085657  0.20792415  1
  H  H43  1  0.75013190  0.36647215  0.18660016  1
  H  H44  1  0.89323264  0.17949339  0.20187041  1
  H  H45  1  0.87077815  0.24005032  0.11561516  1
  H  H46  1  0.76973709  0.18307477  0.16162701  1
  H  H47  1  0.63462443  0.28230945  0.28828491  1
  H  H48  1  0.60716631  0.25445776  0.43332777  1
  H  H49  1  0.82146139  0.11461710  0.77794733  1
  H  H50  1  0.70835480  0.17822901  0.81711496  1
  H  H51  1  0.89662517  0.21427244  0.87778802  1
  H  H52  1  0.90704177  0.30425330  0.80645495  1
  H  H53  1  0.81052959  0.31477879  0.87266241  1
  H  H54  1  0.65888658  0.50816023  0.70599688  1
  H  H55  1  0.78440311  0.53621758  0.75497116  1
  H  H56  1  0.66686285  0.59548209  0.79164803  1
  H  H57  1  0.66526889  0.58856430  0.56425786  1
  H  H58  1  0.68200923  0.93453647  0.48177253  1
  H  H59  1  0.66287356  0.95569943  0.33359413  1
  H  H60  1  0.61481189  0.86051513  0.19993631  1
  H  H61  1  0.64569876  0.72396486  0.18576411  1
  H  H62  1  0.80879608  0.89626704  0.19336296  1
  H  H63  1  0.74979039  0.84145043  0.10900079  1
  H  H64  1  0.82661893  0.76747035  0.16985328  1
  H  H65  1  0.72318586  0.62389351  0.29301845  1
  H  H66  1  0.74894999  0.60341844  0.44040895  1
  H  H67  1  0.88393304  0.82905652  0.78967626  1
  H  H68  1  0.82534222  0.71214790  0.82350548  1
  H  H69  1  0.77765904  0.89821366  0.88277487  1
  H  H70  1  0.68767304  0.90018061  0.80584569  1
  H  H71  1  0.68309700  0.80628534  0.87314581  1
  Pb  Pb72  1  0.00550121  1.00223942  0.01815508  1
  Pb  Pb73  1  0.98395391  0.51228035  0.00293183  1
  Pb  Pb74  1  0.51553767  0.00535920  0.99361199  1
  Pb  Pb75  1  0.48787436  0.49563986  0.99513524  1
  C  C76  1  0.20695506  0.42696280  0.26274223  1
  C  C77  1  0.22441030  0.33752998  0.31828191  1
  C  C78  1  0.19854629  0.34002812  0.40113084  1
  C  C79  1  0.22584462  0.24932595  0.44101539  1
  C  C80  1  0.21634048  0.23117793  0.52742860  1
  C  C81  1  0.19283354  0.13156816  0.55759691  1
  C  C82  1  0.18439513  0.11947683  0.64055323  1
  C  C83  1  0.19989969  0.20615599  0.69523527  1
  C  C84  1  0.18594481  0.19480318  0.78404049  1
  C  C85  1  0.22363432  0.30517238  0.66552933  1
  C  C86  1  0.23192742  0.31742299  0.58282903  1
  C  C87  1  0.27275346  0.24364001  0.29556208  1
  C  C88  1  0.31975482  0.21869464  0.21623620  1
  C  C89  1  0.41917057  0.78592451  0.26171532  1
  C  C90  1  0.33028858  0.77159600  0.31828164  1
  C  C91  1  0.33583713  0.79780666  0.40241023  1
  C  C92  1  0.24427244  0.77345730  0.44215142  1
  C  C93  1  0.22742022  0.78462038  0.52918551  1
  C  C94  1  0.12758226  0.80791059  0.56127587  1
  C  C95  1  0.11591612  0.81655174  0.64486612  1
  C  C96  1  0.20343440  0.80243648  0.69838350  1
  C  C97  1  0.19339512  0.81328820  0.78850630  1
  C  C98  1  0.30301506  0.78019111  0.66649779  1
  C  C99  1  0.31474570  0.77084435  0.58339719  1
  C  C100  1  0.23318885  0.72640546  0.29463957  1
  C  C101  1  0.20685497  0.68153155  0.21249499  1
  C  C102  1  0.56880659  0.29427768  0.73582368  1
  C  C103  1  0.65877240  0.27773495  0.67959249  1
  C  C104  1  0.65634150  0.30066702  0.59615126  1
  C  C105  1  0.74930433  0.27601812  0.55716740  1
  C  C106  1  0.77058349  0.28795858  0.47141928  1
  C  C107  1  0.87241858  0.31202339  0.44405151  1
  C  C108  1  0.88802800  0.32530490  0.36198556  1
  C  C109  1  0.80286306  0.31520932  0.30512333  1
  C  C110  1  0.81943643  0.33051656  0.21688248  1
  C  C111  1  0.70152674  0.29050375  0.33193915  1
  C  C112  1  0.68588849  0.27622405  0.41364587  1
  C  C113  1  0.75518498  0.23435111  0.70341985  1
  C  C114  1  0.78075321  0.19071092  0.78363351  1
  C  C115  1  0.70745006  0.57065525  0.73640496  1
  C  C116  1  0.72366085  0.66029411  0.68142304  1
  C  C117  1  0.70074039  0.65695858  0.59677674  1
  C  C118  1  0.72612339  0.74881342  0.55872941  1
  C  C119  1  0.71635854  0.76710045  0.47196526  1
  C  C120  1  0.69395443  0.86667508  0.44047418  1
  C  C121  1  0.68316685  0.87853624  0.35705615  1
  C  C122  1  0.69348061  0.79115382  0.30316804  1
  C  C123  1  0.67352219  0.79945190  0.21363418  1
  C  C124  1  0.71598936  0.69222810  0.33443876  1
  C  C125  1  0.72856108  0.68048833  0.41731786  1
  C  C126  1  0.76738805  0.75663892  0.70723833  1
  C  C127  1  0.80953890  0.78371347  0.79004170  1
  S  S128  1  0.28483250  0.15953482  0.37553442  1
  S  S129  1  0.14953943  0.71777432  0.37489215  1
  S  S130  1  0.84121735  0.22264305  0.62421103  1
  S  S131  1  0.77943391  0.84149661  0.62832983  1
  I  I132  1  0.25619808  0.94210847  0.00681128  1
  I  I133  1  0.22659375  0.56712999  0.01420297  1
  I  I134  1  0.76058533  0.07107143  0.99404645  1
  I  I135  1  0.73368346  0.43257214  0.97543657  1
  I  I136  1  0.05090978  0.26163530  0.02894947  1
  I  I137  1  0.94516907  0.76351133  0.98561104  1
  I  I138  1  0.41997304  0.25483022  0.99220587  1
  I  I139  1  0.57876910  0.76469998  0.99936526  1
  I  I140  1  0.98521313  0.00854224  0.82967705  1
  I  I141  1  0.00700653  0.00327664  0.21864803  1
  I  I142  1  0.00879076  0.48422511  0.80953379  1
  I  I143  1  0.92888846  0.59706341  0.18961331  1
  I  I144  1  0.49933459  0.98658617  0.79345009  1
  I  I145  1  0.55987055  0.06353400  0.18118007  1
  I  I146  1  0.40413708  0.54700581  0.80924029  1
  I  I147  1  0.51533516  0.49227929  0.18345015  1
  N  N148  1  0.28167170  0.14928060  0.82764647  1
  N  N149  1  0.24907404  0.14870927  0.16070077  1
  N  N150  1  0.17579744  0.70954225  0.82758851  1
  N  N151  1  0.14999342  0.75745332  0.15782990  1
  N  N152  1  0.83886579  0.22701627  0.17152423  1
  N  N153  1  0.85343820  0.25987593  0.83782586  1
  N  N154  1  0.77127846  0.82904216  0.16897140  1
  N  N155  1  0.73541363  0.85085072  0.84033565  1
