# generated using pymatgen
data_H18PbC13S(I2N)2
_symmetry_space_group_name_H-M   'P 1'
_cell_length_a   12.68946298
_cell_length_b   12.67513046
_cell_length_c   16.17653693
_cell_angle_alpha   90.68897230
_cell_angle_beta   89.73181633
_cell_angle_gamma   89.16905003
_symmetry_Int_Tables_number   1
_chemical_formula_structural   H18PbC13S(I2N)2
_chemical_formula_sum   'H72 Pb4 C52 S4 I16 N8'
_cell_volume   2601.35150836
_cell_formula_units_Z   4
loop_
 _symmetry_equiv_pos_site_id
 _symmetry_equiv_pos_as_xyz
  1  'x, y, z'
loop_
 _atom_site_type_symbol
 _atom_site_label
 _atom_site_symmetry_multiplicity
 _atom_site_fract_x
 _atom_site_fract_y
 _atom_site_fract_z
 _atom_site_occupancy
  H  H0  1  0.42049517  0.12064090  0.51398764  1
  H  H1  1  0.33153863  0.01945028  0.53809373  1
  H  H2  1  0.43022663  0.05230979  0.60987921  1
  H  H3  1  0.30782663  0.10725553  0.73397523  1
  H  H4  1  0.17298285  0.18566331  0.83450302  1
  H  H5  1  0.07760047  0.27724915  0.79877201  1
  H  H6  1  0.29316680  0.34609924  0.84358989  1
  H  H7  1  0.18934568  0.34128095  0.90911201  1
  H  H8  1  0.18199472  0.41878427  0.82706880  1
  H  H9  1  0.20438018  0.11131847  0.44436590  1
  H  H10  1  0.21797332  0.13447850  0.29317832  1
  H  H11  1  0.34378822  0.36348349  0.19543274  1
  H  H12  1  0.29691632  0.23306642  0.17887932  1
  H  H13  1  0.19540189  0.38733920  0.11790950  1
  H  H14  1  0.12508305  0.29651592  0.16390579  1
  H  H15  1  0.14476716  0.41204956  0.21087278  1
  H  H16  1  0.32451318  0.45303285  0.33306268  1
  H  H17  1  0.31065601  0.42946741  0.48448948  1
  H  H18  1  0.12287388  0.57037520  0.51853273  1
  H  H19  1  0.01757454  0.65897186  0.54282558  1
  H  H20  1  0.05744990  0.56438302  0.61625127  1
  H  H21  1  0.10366615  0.69753654  0.73494906  1
  H  H22  1  0.18148040  0.84180656  0.82932161  1
  H  H23  1  0.28356048  0.92262287  0.79244207  1
  H  H24  1  0.33323015  0.70148932  0.83741690  1
  H  H25  1  0.32696686  0.80318087  0.90698417  1
  H  H26  1  0.41217508  0.80777167  0.82834416  1
  H  H27  1  0.10760969  0.79090736  0.44729512  1
  H  H28  1  0.12896054  0.78045210  0.29516788  1
  H  H29  1  0.36470399  0.66009355  0.19045803  1
  H  H30  1  0.22956330  0.69533585  0.17791605  1
  H  H31  1  0.35741184  0.81315346  0.11188829  1
  H  H32  1  0.27211110  0.87612437  0.17395780  1
  H  H33  1  0.39631537  0.85799735  0.20344889  1
  H  H34  1  0.44906915  0.66940308  0.32673499  1
  H  H35  1  0.42745110  0.68032963  0.47883702  1
  H  H36  1  0.91314104  0.11351957  0.49093515  1
  H  H37  1  1.00323416  0.20639738  0.45239020  1
  H  H38  1  0.97124100  0.09546054  0.39069761  1
  H  H39  1  0.90460526  0.19999810  0.26546454  1
  H  H40  1  0.80884532  0.31056866  0.16049164  1
  H  H41  1  0.71276312  0.40446540  0.19565198  1
  H  H42  1  0.66870267  0.18058703  0.15168161  1
  H  H43  1  0.63932747  0.28766344  0.09719804  1
  H  H44  1  0.58049004  0.26996667  0.18767924  1
  H  H45  1  0.89549428  0.30495617  0.55984536  1
  H  H46  1  0.87037610  0.27745770  0.70963207  1
  H  H47  1  0.64437970  0.13422990  0.79737988  1
  H  H48  1  0.76971765  0.18784700  0.82003239  1
  H  H49  1  0.59886249  0.27331702  0.88177736  1
  H  H50  1  0.69358037  0.35192604  0.84951414  1
  H  H51  1  0.58698676  0.33358306  0.79181978  1
  H  H52  1  0.55493355  0.16982121  0.66394338  1
  H  H53  1  0.58071577  0.19587688  0.51365146  1
  H  H54  1  0.93908539  0.84308917  0.47992033  1
  H  H55  1  0.85749949  0.95495689  0.46529901  1
  H  H56  1  0.94795235  0.91643423  0.38630287  1
  H  H57  1  0.82187292  0.87877056  0.26567864  1
  H  H58  1  0.67183183  0.81625553  0.16763694  1
  H  H59  1  0.58473002  0.71584635  0.20013399  1
  H  H60  1  0.80833716  0.67063259  0.15317656  1
  H  H61  1  0.70369474  0.66020013  0.09017097  1
  H  H62  1  0.71254355  0.58550915  0.17362087  1
  H  H63  1  0.70637055  0.88609668  0.54951451  1
  H  H64  1  0.72694498  0.87282168  0.70145089  1
  H  H65  1  0.85496613  0.64793841  0.80461263  1
  H  H66  1  0.80812028  0.78014649  0.81698860  1
  H  H67  1  0.70982395  0.62820939  0.88617292  1
  H  H68  1  0.63868223  0.72375426  0.84147625  1
  H  H69  1  0.65395375  0.60741383  0.79477855  1
  H  H70  1  0.82668171  0.54790998  0.67210417  1
  H  H71  1  0.80811695  0.56189018  0.51986582  1
  Pb  Pb72  1  0.99967775  1.00330472  0.00422479  1
  Pb  Pb73  1  0.98481139  0.51378792  0.00396835  1
  Pb  Pb74  1  0.50841078  0.00797782  1.00159513  1
  Pb  Pb75  1  0.47636266  0.50368777  0.99526616  1
  C  C76  1  0.37539395  0.08580400  0.56458387  1
  C  C77  1  0.30274177  0.16540357  0.60515894  1
  C  C78  1  0.27699456  0.16519583  0.69071060  1
  C  C79  1  0.20765953  0.24440346  0.71475796  1
  C  C80  1  0.16220101  0.25803735  0.79899803  1
  C  C81  1  0.25250338  0.24777618  0.56454541  1
  C  C82  1  0.25690007  0.26834999  0.47521497  1
  C  C83  1  0.23133839  0.18607482  0.42000510  1
  C  C84  1  0.23902508  0.19907888  0.33498528  1
  C  C85  1  0.27216748  0.29519323  0.30291676  1
  C  C86  1  0.28118740  0.30832415  0.21113574  1
  C  C87  1  0.29667393  0.37832087  0.35734888  1
  C  C88  1  0.28890683  0.36526429  0.44267313  1
  C  C89  1  0.08659417  0.61775099  0.56861252  1
  C  C90  1  0.16368027  0.69317030  0.60586413  1
  C  C91  1  0.16203564  0.72428283  0.69050024  1
  C  C92  1  0.24102548  0.79260639  0.71170491  1
  C  C93  1  0.25585109  0.84110047  0.79455641  1
  C  C94  1  0.24580474  0.73971869  0.56327620  1
  C  C95  1  0.26519019  0.73500535  0.47366947  1
  C  C96  1  0.18210340  0.76319306  0.42066689  1
  C  C97  1  0.19412219  0.75748728  0.33530087  1
  C  C98  1  0.29037843  0.72382072  0.30076518  1
  C  C99  1  0.30295254  0.71739115  0.20869457  1
  C  C100  1  0.37420873  0.69710819  0.35307661  1
  C  C101  1  0.36216846  0.70279794  0.43872045  1
  C  C102  1  0.93869631  0.15388499  0.43483374  1
  C  C103  1  0.84979658  0.21358341  0.39546085  1
  C  C104  1  0.84509664  0.23011693  0.30892843  1
  C  C105  1  0.75771115  0.28660172  0.28433433  1
  C  C106  1  0.73776336  0.32149125  0.19854820  1
  C  C107  1  0.76254417  0.25688127  0.43648498  1
  C  C108  1  0.74045103  0.25129553  0.52563707  1
  C  C109  1  0.82070969  0.27523298  0.58244490  1
  C  C110  1  0.80640879  0.26024503  0.66686353  1
  C  C111  1  0.71095327  0.22178591  0.69695759  1
  C  C112  1  0.69537576  0.20219476  0.78741148  1
  C  C113  1  0.62922668  0.20107977  0.64112658  1
  C  C114  1  0.64352573  0.21583960  0.55661937  1
  C  C115  1  0.89382522  0.88659753  0.43339668  1
  C  C116  1  0.81246211  0.81864237  0.39361123  1
  C  C117  1  0.78577719  0.82422170  0.30874512  1
  C  C118  1  0.70964430  0.75375563  0.28565643  1
  C  C119  1  0.66675490  0.74186917  0.20118413  1
  C  C120  1  0.75496573  0.74279141  0.43455310  1
  C  C121  1  0.75683005  0.72535772  0.52429591  1
  C  C122  1  0.73304200  0.81207490  0.57653626  1
  C  C123  1  0.74407425  0.80464963  0.66163829  1
  C  C124  1  0.77746294  0.70963205  0.69675364  1
  C  C125  1  0.79133820  0.70338745  0.78849259  1
  C  C126  1  0.79813442  0.62163360  0.64533842  1
  C  C127  1  0.78797767  0.62928976  0.55975759  1
  S  S128  1  0.17420366  0.32250087  0.63169168  1
  S  S129  1  0.32047515  0.81836080  0.62778361  1
  S  S130  1  0.67772599  0.31929544  0.36811795  1
  S  S131  1  0.67114202  0.67767843  0.36812023  1
  I  I132  1  0.25828477  0.96585240  -0.00323221  1
  I  I133  1  0.23549570  0.55808275  0.01078255  1
  I  I134  1  0.74996430  0.05792947  0.02195912  1
  I  I135  1  0.73394798  0.45962382  0.98664174  1
  I  I136  1  0.03520078  0.25984110  0.01017660  1
  I  I137  1  0.93168358  0.75511501  0.99942847  1
  I  I138  1  0.43986331  0.25449544  0.98301712  1
  I  I139  1  0.53259964  0.74951172  1.00590439  1
  I  I140  1  -0.01225824  0.01027144  0.81255057  1
  I  I141  1  0.05393501  0.00182486  0.20497488  1
  I  I142  1  0.99595217  0.49328127  0.80362076  1
  I  I143  1  0.97005782  0.52846369  0.20335599  1
  I  I144  1  0.53425705  0.95221206  0.80121385  1
  I  I145  1  0.50177370  0.02984943  0.19977203  1
  I  I146  1  0.45819994  0.50875162  0.79266354  1
  I  I147  1  0.50830201  0.49484159  0.19196147  1
  N  N148  1  0.21207358  0.34674707  0.84756841  1
  N  N149  1  0.18120347  0.35343216  0.17481191  1
  N  N150  1  0.33684822  0.78219535  0.84506917  1
  N  N151  1  0.33390383  0.82173848  0.17302988  1
  N  N152  1  0.65113117  0.26068852  0.15653462  1
  N  N153  1  0.64104503  0.29542885  0.82946609  1
  N  N154  1  0.72757201  0.65975220  0.15127911  1
  N  N155  1  0.69266590  0.66343848  0.83008852  1
