# generated using pymatgen
data_H12PbC7(I2N)2
_symmetry_space_group_name_H-M   'P 1'
_cell_length_a   12.64312812
_cell_length_b   12.56907913
_cell_length_c   11.04025699
_cell_angle_alpha   90.01612343
_cell_angle_beta   90.11633695
_cell_angle_gamma   89.70125606
_symmetry_Int_Tables_number   1
_chemical_formula_structural   H12PbC7(I2N)2
_chemical_formula_sum   'H48 Pb4 C28 I16 N8'
_cell_volume   1754.40706413
_cell_formula_units_Z   4
loop_
 _symmetry_equiv_pos_site_id
 _symmetry_equiv_pos_as_xyz
  1  'x, y, z'
loop_
 _atom_site_type_symbol
 _atom_site_label
 _atom_site_symmetry_multiplicity
 _atom_site_fract_x
 _atom_site_fract_y
 _atom_site_fract_z
 _atom_site_occupancy
  H  H0  1  0.20278193  0.24920860  0.78415915  1
  H  H1  1  0.13283330  0.14057142  0.74331335  1
  H  H2  1  0.23110112  0.13102061  0.84470125  1
  H  H3  1  0.36453436  0.16072507  0.70432722  1
  H  H4  1  0.28132816  0.05891016  0.64928697  1
  H  H5  1  0.28099948  0.36173870  0.64265941  1
  H  H6  1  0.25200605  0.46562512  0.45619265  1
  H  H7  1  0.22995559  0.37365986  0.25788621  1
  H  H8  1  0.22613170  0.08264911  0.23038163  1
  H  H9  1  0.17299400  0.19138406  0.16965914  1
  H  H10  1  0.30436786  0.17725985  0.16800238  1
  H  H11  1  0.25504598  0.06961472  0.43758279  1
  H  H12  1  0.23580366  0.79552778  0.78452334  1
  H  H13  1  0.12528880  0.86253578  0.74208437  1
  H  H14  1  0.12048072  0.76208307  0.84152200  1
  H  H15  1  0.15802207  0.63076323  0.69923685  1
  H  H16  1  0.05398518  0.71155518  0.64187148  1
  H  H17  1  0.35596321  0.71863450  0.64446129  1
  H  H18  1  0.46144280  0.74843249  0.46036706  1
  H  H19  1  0.37293829  0.77001281  0.25982671  1
  H  H20  1  0.08376200  0.76982783  0.22632922  1
  H  H21  1  0.18827145  0.83247563  0.17098705  1
  H  H22  1  0.18349872  0.69960354  0.16213893  1
  H  H23  1  0.06845321  0.74457006  0.43317742  1
  H  H24  1  0.75673692  0.31190343  0.21875280  1
  H  H25  1  0.86692933  0.37682574  0.26249221  1
  H  H26  1  0.87383259  0.28061434  0.15887360  1
  H  H27  1  0.84056928  0.14285948  0.29317414  1
  H  H28  1  0.94195055  0.22330323  0.35426816  1
  H  H29  1  0.64053644  0.22633253  0.35398966  1
  H  H30  1  0.53497019  0.25871641  0.53786492  1
  H  H31  1  0.62337878  0.28125503  0.73776705  1
  H  H32  1  0.90842897  0.30644222  0.76826012  1
  H  H33  1  0.79298878  0.32691687  0.83702325  1
  H  H34  1  0.83796664  0.20146996  0.82422462  1
  H  H35  1  0.92795814  0.25104166  0.56504613  1
  H  H36  1  0.68718168  0.75877743  0.22092307  1
  H  H37  1  0.62726393  0.87485963  0.25922764  1
  H  H38  1  0.72457209  0.87221500  0.15765587  1
  H  H39  1  0.85814138  0.83994046  0.29680681  1
  H  H40  1  0.77764932  0.94343343  0.35534883  1
  H  H41  1  0.77372264  0.64060525  0.35632109  1
  H  H42  1  0.74386059  0.53457513  0.54104941  1
  H  H43  1  0.71978434  0.62431560  0.74044810  1
  H  H44  1  0.69258815  0.91165637  0.76868543  1
  H  H45  1  0.66664828  0.79677599  0.83535278  1
  H  H46  1  0.79302732  0.83540518  0.82954164  1
  H  H47  1  0.74620830  0.93032346  0.56580535  1
  Pb  Pb48  1  0.99043115  1.00197962  0.00517736  1
  Pb  Pb49  1  0.00625431  0.51043993  0.99647708  1
  Pb  Pb50  1  0.49982464  0.01150742  0.99869623  1
  Pb  Pb51  1  0.49750335  0.49558205  0.00507258  1
  C  C52  1  0.28583651  0.14468862  0.66650307  1
  C  C53  1  0.26605513  0.20836981  0.55383329  1
  C  C54  1  0.26656035  0.31984640  0.55760717  1
  C  C55  1  0.25203704  0.37911985  0.45225848  1
  C  C56  1  0.24007142  0.32792497  0.34101553  1
  C  C57  1  0.24290211  0.21731301  0.33852848  1
  C  C58  1  0.25393251  0.15628904  0.44287207  1
  C  C59  1  0.13891440  0.70961798  0.66205005  1
  C  C60  1  0.20442346  0.73304054  0.55214811  1
  C  C61  1  0.31528742  0.73386278  0.55871651  1
  C  C62  1  0.37553112  0.74871869  0.45459355  1
  C  C63  1  0.32630521  0.76030266  0.34204927  1
  C  C64  1  0.21653517  0.75778729  0.33710949  1
  C  C65  1  0.15447475  0.74599772  0.44009647  1
  C  C66  1  0.85697696  0.22044156  0.33471420  1
  C  C67  1  0.79184839  0.23825315  0.44640890  1
  C  C68  1  0.68104161  0.23923789  0.44013700  1
  C  C69  1  0.62080007  0.25566081  0.54393415  1
  C  C70  1  0.67011055  0.26798582  0.65623563  1
  C  C71  1  0.77980769  0.26378561  0.66139245  1
  C  C72  1  0.84191026  0.25083183  0.55832827  1
  C  C73  1  0.78040940  0.85787322  0.33611430  1
  C  C74  1  0.76106185  0.79293838  0.44797671  1
  C  C75  1  0.76113963  0.68146656  0.44240417  1
  C  C76  1  0.74604650  0.62098437  0.54665440  1
  C  C77  1  0.73295893  0.67093655  0.65856712  1
  C  C78  1  0.73500065  0.78147550  0.66289926  1
  C  C79  1  0.74746678  0.84370359  0.55960618  1
  I  I80  1  0.24738598  0.95309034  0.98893865  1
  I  I81  1  0.23967289  0.59278615  0.98994765  1
  I  I82  1  0.75170216  0.07818549  0.02409255  1
  I  I83  1  0.74868120  0.45925988  0.98911080  1
  I  I84  1  0.04439465  0.25487670  0.01832734  1
  I  I85  1  0.92054915  0.76017357  0.99843658  1
  I  I86  1  0.40663285  0.25022449  0.98753450  1
  I  I87  1  0.54130138  0.75589574  0.00122694  1
  I  I88  1  0.98734061  0.00756977  0.70425888  1
  I  I89  1  0.03047187  0.99243265  0.28725518  1
  I  I90  1  0.02765719  0.44882570  0.71363950  1
  I  I91  1  0.99529820  0.52516299  0.28578025  1
  I  I92  1  0.52507598  1.00171837  0.71391593  1
  I  I93  1  0.49331941  0.01371335  0.29117685  1
  I  I94  1  0.47657840  0.50387482  0.72106940  1
  I  I95  1  0.52646024  0.50214522  0.28760335  1
  N  N96  1  0.20803695  0.16907813  0.76541019  1
  N  N97  1  0.23709288  0.16360637  0.22110816  1
  N  N98  1  0.15698817  0.78759508  0.76294558  1
  N  N99  1  0.16485635  0.76501639  0.21848426  1
  N  N100  1  0.83581142  0.30224398  0.23854185  1
  N  N101  1  0.83254771  0.27338838  0.77904027  1
  N  N102  1  0.70037165  0.83820063  0.23818401  1
  N  N103  1  0.72293936  0.83450953  0.78021359  1
