# generated using pymatgen
data_H11PbC7I4N2F
_symmetry_space_group_name_H-M   'P 1'
_cell_length_a   12.47174660
_cell_length_b   12.30859125
_cell_length_c   11.64964682
_cell_angle_alpha   89.46951558
_cell_angle_beta   89.07593114
_cell_angle_gamma   88.38216948
_symmetry_Int_Tables_number   1
_chemical_formula_structural   H11PbC7I4N2F
_chemical_formula_sum   'H44 Pb4 C28 I16 N8 F4'
_cell_volume   1787.31829549
_cell_formula_units_Z   4
loop_
 _symmetry_equiv_pos_site_id
 _symmetry_equiv_pos_as_xyz
  1  'x, y, z'
loop_
 _atom_site_type_symbol
 _atom_site_label
 _atom_site_symmetry_multiplicity
 _atom_site_fract_x
 _atom_site_fract_y
 _atom_site_fract_z
 _atom_site_occupancy
  H  H0  1  0.26487474  0.22399378  0.84681750  1
  H  H1  1  0.36491316  0.26651203  0.76333556  1
  H  H2  1  0.31231165  0.14542319  0.73938841  1
  H  H3  1  0.21401229  0.36838290  0.70927224  1
  H  H4  1  0.13400291  0.25095491  0.71408100  1
  H  H5  1  0.24514755  0.43610405  0.52076012  1
  H  H6  1  0.27468706  0.40706159  0.31101740  1
  H  H7  1  0.22372898  0.21870791  0.15331155  1
  H  H8  1  0.34588666  0.26790631  0.17192644  1
  H  H9  1  0.32994913  0.13706011  0.19648212  1
  H  H10  1  0.25736960  0.05939166  0.36652721  1
  H  H11  1  0.22882961  0.72319291  0.85195200  1
  H  H12  1  0.27409979  0.62564696  0.76105457  1
  H  H13  1  0.15117079  0.68476247  0.74531501  1
  H  H14  1  0.36720541  0.78189425  0.71303601  1
  H  H15  1  0.24751867  0.86343705  0.71930207  1
  H  H16  1  0.43338442  0.75329561  0.52074563  1
  H  H17  1  0.40172040  0.72780835  0.31218362  1
  H  H18  1  0.22606640  0.78510199  0.15926666  1
  H  H19  1  0.25054516  0.65135128  0.17820027  1
  H  H20  1  0.12797209  0.70069983  0.20080927  1
  H  H21  1  0.05924554  0.74794028  0.37820776  1
  H  H22  1  0.77391260  0.23682266  0.14975671  1
  H  H23  1  0.74738419  0.13238732  0.23743758  1
  H  H24  1  0.85752893  0.20219942  0.25657061  1
  H  H25  1  0.62986615  0.28003837  0.28793338  1
  H  H26  1  0.73861212  0.36969935  0.28260661  1
  H  H27  1  0.56445479  0.25581752  0.47933512  1
  H  H28  1  0.59552114  0.22808147  0.68849406  1
  H  H29  1  0.78739432  0.28432688  0.84224986  1
  H  H30  1  0.73188521  0.16382087  0.82685350  1
  H  H31  1  0.86168233  0.17149884  0.79733627  1
  H  H32  1  0.93733225  0.25074122  0.62700855  1
  H  H33  1  0.76262560  0.77510621  0.15128731  1
  H  H34  1  0.86219069  0.72309559  0.23328741  1
  H  H35  1  0.81129299  0.85006222  0.25710283  1
  H  H36  1  0.71016891  0.63450980  0.29147869  1
  H  H37  1  0.63173069  0.75728952  0.28937543  1
  H  H38  1  0.74023829  0.56624679  0.48151511  1
  H  H39  1  0.76828515  0.59599058  0.68953313  1
  H  H40  1  0.71930337  0.77043469  0.84620195  1
  H  H41  1  0.85129098  0.74677046  0.82302875  1
  H  H42  1  0.80088757  0.87113579  0.80704886  1
  H  H43  1  0.75934301  0.94394455  0.62880061  1
  Pb  Pb44  1  0.01055746  0.00276015  0.01368502  1
  Pb  Pb45  1  0.99211929  0.49221085  0.99760197  1
  Pb  Pb46  1  0.50076136  0.98766313  0.99314380  1
  Pb  Pb47  1  0.49911490  0.50155177  0.99054282  1
  C  C48  1  0.21238924  0.28199478  0.68761712  1
  C  C49  1  0.23392699  0.26574291  0.56173655  1
  C  C50  1  0.24651314  0.35401334  0.48637533  1
  C  C51  1  0.26267518  0.33822975  0.36883370  1
  C  C52  1  0.26731443  0.23257305  0.32761709  1
  C  C53  1  0.25352429  0.14219461  0.39854246  1
  C  C54  1  0.23696997  0.16173470  0.51439272  1
  C  C55  1  0.28170572  0.78424786  0.69270142  1
  C  C56  1  0.26561189  0.76563423  0.56703249  1
  C  C57  1  0.35165604  0.75287918  0.48901224  1
  C  C58  1  0.33438740  0.73912567  0.37199009  1
  C  C59  1  0.22925193  0.73672982  0.33406271  1
  C  C60  1  0.14135123  0.75007434  0.40796487  1
  C  C61  1  0.16220812  0.76479605  0.52291026  1
  C  C62  1  0.71444171  0.28801447  0.30943835  1
  C  C63  1  0.73200809  0.26859695  0.43513887  1
  C  C64  1  0.64585739  0.25527518  0.51206194  1
  C  C65  1  0.66271270  0.24042588  0.62937874  1
  C  C66  1  0.76730227  0.23780795  0.66885544  1
  C  C67  1  0.85549632  0.25264657  0.59611825  1
  C  C68  1  0.83509807  0.26813534  0.48068887  1
  C  C69  1  0.71000390  0.72113890  0.31259393  1
  C  C70  1  0.73249366  0.73678032  0.43756543  1
  C  C71  1  0.74337387  0.64879882  0.51417963  1
  C  C72  1  0.75876679  0.66505962  0.63106595  1
  C  C73  1  0.76527545  0.77109248  0.67038471  1
  C  C74  1  0.75467781  0.86101723  0.59803747  1
  C  C75  1  0.73773090  0.84108168  0.48313228  1
  I  I76  1  0.25899519  0.91381288  0.99744144  1
  I  I77  1  0.25000464  0.51375790  0.02246617  1
  I  I78  1  0.75584316  0.02249247  0.00869692  1
  I  I79  1  0.75495531  0.41060552  0.00121737  1
  I  I80  1  0.08972311  0.24265715  0.99945881  1
  I  I81  1  0.98578140  0.74695318  0.98610154  1
  I  I82  1  0.48154000  0.24473449  0.98139584  1
  I  I83  1  0.59510408  0.73985903  0.00688898  1
  I  I84  1  0.98898576  0.01784009  0.74108718  1
  I  I85  1  0.98546589  0.99807578  0.28661073  1
  I  I86  1  0.00279509  0.50745716  0.72724019  1
  I  I87  1  0.96767524  0.54308853  0.27175711  1
  I  I88  1  0.49506801  -0.00012223  0.71921880  1
  I  I89  1  0.49682403  0.01566467  0.26483693  1
  I  I90  1  0.43733755  0.49968874  0.71415687  1
  I  I91  1  0.49980462  0.49734759  0.25954791  1
  N  N92  1  0.29376093  0.22507175  0.76279853  1
  N  N93  1  0.29159849  0.21332122  0.20578994  1
  N  N94  1  0.22973352  0.69919755  0.76706352  1
  N  N95  1  0.20796178  0.71847486  0.21262107  1
  N  N96  1  0.77758189  0.20963802  0.23442567  1
  N  N97  1  0.78788531  0.21473806  0.79005937  1
  N  N98  1  0.79197234  0.77190214  0.23414328  1
  N  N99  1  0.78463707  0.79041206  0.79199446  1
  F  F100  1  0.22516260  0.07445465  0.58643041  1
  F  F101  1  0.07700237  0.77787687  0.59716991  1
  F  F102  1  0.92041493  0.28150646  0.40724279  1
  F  F103  1  0.72610468  0.92824646  0.41050104  1
