# generated using pymatgen
data_H12PbC8I4(NF)2
_symmetry_space_group_name_H-M   'P 1'
_cell_length_a   12.36782461
_cell_length_b   12.36864153
_cell_length_c   12.28693984
_cell_angle_alpha   90.17406080
_cell_angle_beta   90.17391101
_cell_angle_gamma   90.97930915
_symmetry_Int_Tables_number   1
_chemical_formula_structural   H12PbC8I4(NF)2
_chemical_formula_sum   'H48 Pb4 C32 I16 N8 F8'
_cell_volume   1879.28019715
_cell_formula_units_Z   4
loop_
 _symmetry_equiv_pos_site_id
 _symmetry_equiv_pos_as_xyz
  1  'x, y, z'
loop_
 _atom_site_type_symbol
 _atom_site_label
 _atom_site_symmetry_multiplicity
 _atom_site_fract_x
 _atom_site_fract_y
 _atom_site_fract_z
 _atom_site_occupancy
  H  H0  1  0.31386601  0.28844162  0.87055187  1
  H  H1  1  0.33291162  0.18634618  0.78282360  1
  H  H2  1  0.38662983  0.31164596  0.75892206  1
  H  H3  1  0.21348092  0.39105715  0.74431612  1
  H  H4  1  0.15057205  0.26430428  0.77379141  1
  H  H5  1  0.21769217  0.44281040  0.55684008  1
  H  H6  1  0.13784911  0.22766708  0.23239576  1
  H  H7  1  0.21100681  0.10773000  0.25583207  1
  H  H8  1  0.37651232  0.19942366  0.23081781  1
  H  H9  1  0.29464411  0.22633428  0.12600935  1
  H  H10  1  0.31853798  0.32336369  0.21994116  1
  H  H11  1  0.22197621  0.05479046  0.44496330  1
  H  H12  1  0.27368727  0.70534571  0.87398612  1
  H  H13  1  0.17663904  0.68147031  0.78006328  1
  H  H14  1  0.30058196  0.62349270  0.76916514  1
  H  H15  1  0.39228648  0.78899521  0.74416886  1
  H  H16  1  0.27233764  0.86214085  0.76761057  1
  H  H17  1  0.44522828  0.77803040  0.55503727  1
  H  H18  1  0.23568693  0.84941763  0.22621171  1
  H  H19  1  0.10893323  0.78649846  0.25568828  1
  H  H20  1  0.18837734  0.61336959  0.24108420  1
  H  H21  1  0.21156251  0.68613044  0.12945331  1
  H  H22  1  0.31367460  0.66710738  0.21717469  1
  H  H23  1  0.05717911  0.78230782  0.44316484  1
  H  H24  1  0.71157136  0.18611606  0.12946485  1
  H  H25  1  0.81367824  0.16708976  0.21719274  1
  H  H26  1  0.68837374  0.11336798  0.24110086  1
  H  H27  1  0.60894614  0.28650653  0.25568267  1
  H  H28  1  0.73570696  0.34941016  0.22620324  1
  H  H29  1  0.55718436  0.28232244  0.44315840  1
  H  H30  1  0.77232038  0.36214581  0.76761789  1
  H  H31  1  0.89227919  0.28901589  0.74417629  1
  H  H32  1  0.80058792  0.12349898  0.76915450  1
  H  H33  1  0.77368248  0.20534285  0.87398023  1
  H  H34  1  0.67664107  0.18146659  0.78005335  1
  H  H35  1  0.94523047  0.27804276  0.55504819  1
  H  H36  1  0.79464954  0.72633153  0.12601655  1
  H  H37  1  0.81854533  0.82335744  0.21994841  1
  H  H38  1  0.87651432  0.69941538  0.23082558  1
  H  H39  1  0.71100043  0.60773052  0.25583288  1
  H  H40  1  0.63785191  0.72767229  0.23239522  1
  H  H41  1  0.72197350  0.55478815  0.44496540  1
  H  H42  1  0.65057998  0.76429224  0.77379658  1
  H  H43  1  0.71347546  0.89105161  0.74432161  1
  H  H44  1  0.88663301  0.81165853  0.75891529  1
  H  H45  1  0.81387620  0.78843520  0.87054469  1
  H  H46  1  0.83293004  0.68634866  0.78280823  1
  H  H47  1  0.71769255  0.94280962  0.55684406  1
  Pb  Pb48  1  0.99019273  0.01086536  0.00242247  1
  Pb  Pb49  1  0.98907997  0.50974327  0.99755349  1
  Pb  Pb50  1  0.48907168  0.00974797  0.99755885  1
  Pb  Pb51  1  0.49019978  0.51084822  0.00242362  1
  C  C52  1  0.21892190  0.30356830  0.73183973  1
  C  C53  1  0.22039755  0.27642822  0.61282898  1
  C  C54  1  0.21839558  0.35770514  0.53382650  1
  C  C55  1  0.21625414  0.32828604  0.42500752  1
  C  C56  1  0.21729760  0.22112138  0.38887152  1
  C  C57  1  0.21135415  0.19528953  0.26956195  1
  C  C58  1  0.22079293  0.13991100  0.46784049  1
  C  C59  1  0.22174637  0.16911160  0.57689882  1
  C  C60  1  0.30472195  0.78864417  0.73044052  1
  C  C61  1  0.27888230  0.78270632  0.61112896  1
  C  C62  1  0.36010574  0.77920991  0.53216598  1
  C  C63  1  0.33089275  0.77825235  0.42309815  1
  C  C64  1  0.22357630  0.77959842  0.38717555  1
  C  C65  1  0.19642780  0.78106852  0.26816348  1
  C  C66  1  0.14228667  0.78160441  0.46617198  1
  C  C67  1  0.17171754  0.78374885  0.57500107  1
  C  C68  1  0.69644131  0.28107041  0.26816304  1
  C  C69  1  0.72358063  0.27960962  0.38717167  1
  C  C70  1  0.64229576  0.28161711  0.46617858  1
  C  C71  1  0.67171104  0.28376179  0.57499109  1
  C  C72  1  0.77888572  0.28272010  0.61113429  1
  C  C73  1  0.80471521  0.28865560  0.73044353  1
  C  C74  1  0.86010341  0.27922285  0.53216637  1
  C  C75  1  0.83090491  0.27826282  0.42311219  1
  C  C76  1  0.71135346  0.69528964  0.26956422  1
  C  C77  1  0.71729546  0.72111940  0.38887336  1
  C  C78  1  0.72078981  0.63991053  0.46784579  1
  C  C79  1  0.72174224  0.66910673  0.57689588  1
  C  C80  1  0.72039445  0.77643006  0.61283300  1
  C  C81  1  0.71892301  0.80356307  0.73184102  1
  C  C82  1  0.71839445  0.85770260  0.53382649  1
  C  C83  1  0.71625358  0.82828523  0.42501320  1
  I  I84  1  0.23963626  0.07336533  0.98139727  1
  I  I85  1  0.23723965  0.44201001  0.01023367  1
  I  I86  1  0.73723945  0.94200295  0.01023436  1
  I  I87  1  0.73963606  0.57336898  0.98139524  1
  I  I88  1  0.92666717  0.26032167  0.01858974  1
  I  I89  1  0.05797565  0.76272113  0.98976426  1
  I  I90  1  0.55799904  0.26269628  0.98978102  1
  I  I91  1  0.42667651  0.76030782  0.01859317  1
  I  I92  1  0.95835951  0.01362705  0.73459820  1
  I  I93  1  0.97273132  0.99566994  0.25982881  1
  I  I94  1  0.00432567  0.52727455  0.74014516  1
  I  I95  1  0.98636485  0.54162354  0.26536779  1
  I  I96  1  0.50432574  0.02727030  0.74015529  1
  I  I97  1  0.48636102  0.04162619  0.26537250  1
  I  I98  1  0.45835755  0.51362462  0.73459980  1
  I  I99  1  0.47273071  0.49566667  0.25982810  1
  N  N100  1  0.32000439  0.26867159  0.78869091  1
  N  N101  1  0.30630972  0.24106327  0.20848731  1
  N  N102  1  0.25894568  0.69369035  0.79150792  1
  N  N103  1  0.23134054  0.67999835  0.21131248  1
  N  N104  1  0.73134451  0.17998997  0.21132484  1
  N  N105  1  0.75894634  0.19369129  0.79150010  1
  N  N106  1  0.80631641  0.74105796  0.20849624  1
  N  N107  1  0.82001309  0.76867727  0.78868311  1
  F  F108  1  0.21338857  0.40780691  0.34807067  1
  F  F109  1  0.22531958  0.08963363  0.65372206  1
  F  F110  1  0.41038573  0.77467552  0.34628439  1
  F  F111  1  0.09218413  0.78661676  0.65193066  1
  F  F112  1  0.59218409  0.28662210  0.65192968  1
  F  F113  1  0.91039143  0.27468289  0.34628862  1
  F  F114  1  0.72531332  0.58963314  0.65372504  1
  F  F115  1  0.71339358  0.90780197  0.34806772  1
