# generated using pymatgen
data_H10PbC8I4(NF2)2
_symmetry_space_group_name_H-M   'P 1'
_cell_length_a   12.18445601
_cell_length_b   12.02475074
_cell_length_c   13.22792705
_cell_angle_alpha   92.95517726
_cell_angle_beta   89.58754973
_cell_angle_gamma   87.99524407
_symmetry_Int_Tables_number   1
_chemical_formula_structural   H10PbC8I4(NF2)2
_chemical_formula_sum   'H40 Pb4 C32 I16 N8 F16'
_cell_volume   1934.24965948
_cell_formula_units_Z   4
loop_
 _symmetry_equiv_pos_site_id
 _symmetry_equiv_pos_as_xyz
  1  'x, y, z'
loop_
 _atom_site_type_symbol
 _atom_site_label
 _atom_site_symmetry_multiplicity
 _atom_site_fract_x
 _atom_site_fract_y
 _atom_site_fract_z
 _atom_site_occupancy
  H  H0  1  0.15836904  0.26035768  0.79420159  1
  H  H1  1  0.27396620  0.26118388  0.86281390  1
  H  H2  1  0.25537211  0.15557613  0.77959036  1
  H  H3  1  0.38817450  0.29182065  0.72666090  1
  H  H4  1  0.27787160  0.39248612  0.73167188  1
  H  H5  1  0.10990028  0.18835755  0.27935432  1
  H  H6  1  0.23292405  0.10548693  0.26769427  1
  H  H7  1  0.32569107  0.25739905  0.20071139  1
  H  H8  1  0.20822374  0.23711116  0.13855223  1
  H  H9  1  0.21437425  0.34541776  0.22096622  1
  H  H10  1  0.28601552  0.85648148  0.79173852  1
  H  H11  1  0.26151256  0.74337898  0.85908326  1
  H  H12  1  0.16747499  0.78682595  0.77705994  1
  H  H13  1  0.28432660  0.61715290  0.72417060  1
  H  H14  1  0.39545011  0.70866181  0.72180077  1
  H  H15  1  0.21384409  0.88610378  0.27888977  1
  H  H16  1  0.10646908  0.79023572  0.27865781  1
  H  H17  1  0.22171910  0.64838408  0.20607999  1
  H  H18  1  0.24108210  0.76437795  0.14109264  1
  H  H19  1  0.33684996  0.72329905  0.22189780  1
  H  H20  1  0.74427327  0.33918426  0.20579640  1
  H  H21  1  0.74425594  0.21791172  0.13655261  1
  H  H22  1  0.84565840  0.24041340  0.21718891  1
  H  H23  1  0.70713480  0.11048668  0.27076716  1
  H  H24  1  0.61025573  0.22424876  0.27329427  1
  H  H25  1  0.80082071  0.38955851  0.72646424  1
  H  H26  1  0.89329658  0.27240872  0.72635801  1
  H  H27  1  0.75240925  0.16502481  0.79625195  1
  H  H28  1  0.76100492  0.28666756  0.86331319  1
  H  H29  1  0.65729505  0.27004363  0.78404067  1
  H  H30  1  0.65578011  0.75822986  0.20914090  1
  H  H31  1  0.76857028  0.74054569  0.13657189  1
  H  H32  1  0.75980148  0.84775715  0.22030149  1
  H  H33  1  0.88444250  0.69645832  0.26935429  1
  H  H34  1  0.77078833  0.60765285  0.26576595  1
  H  H35  1  0.61350097  0.81177315  0.72612971  1
  H  H36  1  0.73362627  0.89079940  0.73419648  1
  H  H37  1  0.83391983  0.73305586  0.79563872  1
  H  H38  1  0.71780461  0.75711362  0.86248256  1
  H  H39  1  0.72472532  0.65039074  0.77841292  1
  Pb  Pb40  1  0.97667250  0.98981504  0.98601269  1
  Pb  Pb41  1  0.04062473  0.49834013  0.98774785  1
  Pb  Pb42  1  0.47384006  0.00750900  0.01123065  1
  Pb  Pb43  1  0.53366492  0.50037932  0.01411276  1
  C  C44  1  0.29960549  0.30424181  0.71429156  1
  C  C45  1  0.27033801  0.27298727  0.60632065  1
  C  C46  1  0.27883707  0.35294330  0.53390804  1
  C  C47  1  0.26029730  0.32906666  0.43147618  1
  C  C48  1  0.22977844  0.22374285  0.39449993  1
  C  C49  1  0.19966031  0.18998378  0.28724517  1
  C  C50  1  0.22152212  0.14381026  0.46694576  1
  C  C51  1  0.24071187  0.16744170  0.56910119  1
  C  C52  1  0.30702583  0.70248632  0.70938520  1
  C  C53  1  0.27804221  0.73038561  0.60317246  1
  C  C54  1  0.35940797  0.73815535  0.52911213  1
  C  C55  1  0.33268352  0.75708862  0.42921072  1
  C  C56  1  0.22418093  0.76963737  0.39713878  1
  C  C57  1  0.19449691  0.79932879  0.29151279  1
  C  C58  1  0.14278698  0.76149055  0.47116836  1
  C  C59  1  0.16949164  0.74229429  0.57100753  1
  C  C60  1  0.69651095  0.20093176  0.28625338  1
  C  C61  1  0.72705380  0.23103371  0.39400660  1
  C  C62  1  0.64545382  0.23471173  0.46915123  1
  C  C63  1  0.66968263  0.25133439  0.57138465  1
  C  C64  1  0.77643722  0.26741853  0.60556369  1
  C  C65  1  0.80788168  0.29859841  0.71291672  1
  C  C66  1  0.85802972  0.26358134  0.53039212  1
  C  C67  1  0.83383741  0.24656503  0.42826314  1
  C  C68  1  0.79562779  0.69322488  0.28383245  1
  C  C69  1  0.76858219  0.72520641  0.39296694  1
  C  C70  1  0.77434847  0.64260539  0.46353397  1
  C  C71  1  0.75693000  0.66661429  0.56656467  1
  C  C72  1  0.73175803  0.77445343  0.60623491  1
  C  C73  1  0.70318853  0.80752842  0.71486100  1
  C  C74  1  0.72637197  0.85710169  0.53567577  1
  C  C75  1  0.74398987  0.83315550  0.43275490  1
  I  I76  1  0.22754302  0.92821810  0.02723101  1
  I  I77  1  0.28194610  0.58088941  0.97403703  1
  I  I78  1  0.72376224  0.07355728  0.99126835  1
  I  I79  1  0.78530310  0.43039113  0.00803576  1
  I  I80  1  0.06388554  0.23519670  0.00322500  1
  I  I81  1  0.92325635  0.73597386  -0.00137165  1
  I  I82  1  0.41869591  0.26626038  0.99950044  1
  I  I83  1  0.56855728  0.75923786  1.00006157  1
  I  I84  1  0.95989657  0.99725917  0.74374094  1
  I  I85  1  0.94430366  0.99424081  0.22617582  1
  I  I86  1  0.04456964  0.48487887  0.75052876  1
  I  I87  1  0.06625754  0.51277187  0.23460840  1
  I  I88  1  0.43892293  0.99196467  0.76610202  1
  I  I89  1  0.46395147  0.01017924  0.24866956  1
  I  I90  1  0.55680481  0.49898148  0.77252335  1
  I  I91  1  0.54868223  0.49750473  0.25648555  1
  N  N92  1  0.24176447  0.24074471  0.79138847  1
  N  N93  1  0.24123532  0.26242028  0.20855848  1
  N  N94  1  0.25074315  0.77799438  0.78869900  1
  N  N95  1  0.25335772  0.72833653  0.21066978  1
  N  N96  1  0.76249138  0.25449425  0.20782723  1
  N  N97  1  0.73975302  0.25027055  0.79270934  1
  N  N98  1  0.74005269  0.76483548  0.20924187  1
  N  N99  1  0.74941237  0.73186323  0.79092605  1
  F  F100  1  0.30708631  0.45779196  0.56305847  1
  F  F101  1  0.27424653  0.41255084  0.36785864  1
  F  F102  1  0.19302982  0.03907924  0.43744270  1
  F  F103  1  0.22805790  0.08357647  0.63267207  1
  F  F104  1  0.46676963  0.72668474  0.55356586  1
  F  F105  1  0.41593679  0.76352166  0.36101116  1
  F  F106  1  0.03544815  0.77302195  0.44671701  1
  F  F107  1  0.08652945  0.73524623  0.63928714  1
  F  F108  1  0.53936991  0.22096594  0.44338161  1
  F  F109  1  0.58452641  0.24980745  0.63847536  1
  F  F110  1  0.96410006  0.27762205  0.55624745  1
  F  F111  1  0.91906469  0.24722746  0.36101402  1
  F  F112  1  0.79863472  0.53550620  0.43220416  1
  F  F113  1  0.76598001  0.58008668  0.62855271  1
  F  F114  1  0.70224081  0.96417734  0.56724349  1
  F  F115  1  0.73550110  0.91965361  0.37075899  1
