# generated using pymatgen
data_H12PbC8I4(NF)2
_symmetry_space_group_name_H-M   'P 1'
_cell_length_a   12.37134512
_cell_length_b   12.37337318
_cell_length_c   12.60088143
_cell_angle_alpha   89.96663930
_cell_angle_beta   89.99012542
_cell_angle_gamma   90.00810407
_symmetry_Int_Tables_number   1
_chemical_formula_structural   H12PbC8I4(NF)2
_chemical_formula_sum   'H48 Pb4 C32 I16 N8 F8'
_cell_volume   1928.88295117
_cell_formula_units_Z   4
loop_
 _symmetry_equiv_pos_site_id
 _symmetry_equiv_pos_as_xyz
  1  'x, y, z'
loop_
 _atom_site_type_symbol
 _atom_site_label
 _atom_site_symmetry_multiplicity
 _atom_site_fract_x
 _atom_site_fract_y
 _atom_site_fract_z
 _atom_site_occupancy
  H  H0  1  0.22305372  0.18534064  0.86914510  1
  H  H1  1  0.33503343  0.21219005  0.80123409  1
  H  H2  1  0.25813749  0.10717989  0.76624437  1
  H  H3  1  0.19058592  0.33866186  0.75787459  1
  H  H4  1  0.10559268  0.22619886  0.73144183  1
  H  H5  1  0.22957579  0.43105245  0.59626357  1
  H  H6  1  0.27792009  0.43047558  0.40436373  1
  H  H7  1  0.39864869  0.22854187  0.26947518  1
  H  H8  1  0.31144616  0.33858681  0.24224367  1
  H  H9  1  0.16990157  0.20539363  0.20038149  1
  H  H10  1  0.28351865  0.18878189  0.12977501  1
  H  H11  1  0.25484930  0.10466269  0.23062200  1
  H  H12  1  0.18516815  0.77712185  0.86906197  1
  H  H13  1  0.21179443  0.66520612  0.80109205  1
  H  H14  1  0.10692757  0.74228054  0.76607929  1
  H  H15  1  0.33854814  0.80953715  0.75797161  1
  H  H16  1  0.22619537  0.89459544  0.73126385  1
  H  H17  1  0.43105648  0.77043150  0.59650235  1
  H  H18  1  0.43056681  0.72200639  0.40464255  1
  H  H19  1  0.22849181  0.60154417  0.26949911  1
  H  H20  1  0.33870095  0.68865469  0.24241747  1
  H  H21  1  0.20560247  0.83046409  0.20081683  1
  H  H22  1  0.18906710  0.71706666  0.12989107  1
  H  H23  1  0.10480624  0.74543742  0.23070858  1
  H  H24  1  0.81126622  0.28390655  0.12974656  1
  H  H25  1  0.79454879  0.17022926  0.20020814  1
  H  H26  1  0.89534596  0.25509675  0.23056882  1
  H  H27  1  0.66136320  0.31153353  0.24230254  1
  H  H28  1  0.77136001  0.39882831  0.26946476  1
  H  H29  1  0.56949004  0.27786282  0.40446315  1
  H  H30  1  0.56890139  0.22957095  0.59638502  1
  H  H31  1  0.77384967  0.10578255  0.73140792  1
  H  H32  1  0.66127539  0.19057558  0.75796883  1
  H  H33  1  0.78749048  0.33500409  0.80177044  1
  H  H34  1  0.81466017  0.22281251  0.86915788  1
  H  H35  1  0.89268540  0.25857039  0.76624304  1
  H  H36  1  0.71665481  0.81103548  0.12982007  1
  H  H37  1  0.83017335  0.79449078  0.20054661  1
  H  H38  1  0.74517406  0.89523007  0.23063627  1
  H  H39  1  0.68863347  0.66129757  0.24236120  1
  H  H40  1  0.60136276  0.77131169  0.26947404  1
  H  H41  1  0.72217985  0.56943312  0.40459914  1
  H  H42  1  0.77052978  0.56888620  0.59648679  1
  H  H43  1  0.89447886  0.77363609  0.73128930  1
  H  H44  1  0.80934824  0.66131711  0.75803974  1
  H  H45  1  0.66510362  0.78811340  0.80120878  1
  H  H46  1  0.77714673  0.81459560  0.86906710  1
  H  H47  1  0.74227832  0.89292452  0.76607137  1
  Pb  Pb48  1  0.99906033  0.99904760  0.01074401  1
  Pb  Pb49  1  0.00105922  0.49916938  0.99775542  1
  Pb  Pb50  1  0.50020698  0.99807082  0.99786238  1
  Pb  Pb51  1  0.49935899  0.49840844  0.99453847  1
  C  C52  1  0.18839113  0.25732956  0.72369228  1
  C  C53  1  0.22380746  0.25809485  0.60973939  1
  C  C54  1  0.23933990  0.35489578  0.55402994  1
  C  C55  1  0.26513854  0.35454076  0.44631809  1
  C  C56  1  0.27814435  0.25755020  0.39026886  1
  C  C57  1  0.31484821  0.25731737  0.27662188  1
  C  C58  1  0.26320856  0.16149255  0.44644084  1
  C  C59  1  0.23571601  0.16197736  0.55327837  1
  C  C60  1  0.25724267  0.81178587  0.72366395  1
  C  C61  1  0.25805448  0.77626735  0.60977049  1
  C  C62  1  0.35490618  0.76065445  0.55420454  1
  C  C63  1  0.35460674  0.73479593  0.44652309  1
  C  C64  1  0.25762046  0.72180671  0.39041253  1
  C  C65  1  0.25740775  0.68527841  0.27675119  1
  C  C66  1  0.16151989  0.73671879  0.44646444  1
  C  C67  1  0.16195028  0.76430333  0.55326326  1
  C  C68  1  0.74264051  0.31501135  0.27662802  1
  C  C69  1  0.74244685  0.27826087  0.39027567  1
  C  C70  1  0.64543811  0.26517361  0.44638989  1
  C  C71  1  0.64507850  0.23941380  0.55411735  1
  C  C72  1  0.74189220  0.22402062  0.60980067  1
  C  C73  1  0.74263175  0.18853905  0.72374838  1
  C  C74  1  0.83802867  0.23598968  0.55326976  1
  C  C75  1  0.83851684  0.26341134  0.44640654  1
  C  C76  1  0.68516015  0.74254708  0.27669313  1
  C  C77  1  0.72179068  0.74234060  0.39033536  1
  C  C78  1  0.73487514  0.64537274  0.44647882  1
  C  C79  1  0.76068515  0.64503870  0.55418324  1
  C  C80  1  0.77614126  0.74185969  0.60977157  1
  C  C81  1  0.81163355  0.74261590  0.72369155  1
  C  C82  1  0.76413680  0.83796774  0.55321309  1
  C  C83  1  0.73664183  0.83841676  0.44638352  1
  I  I84  1  0.24893606  0.93757988  0.99995214  1
  I  I85  1  0.25015340  0.57185746  0.99953028  1
  I  I86  1  0.75016607  0.06477353  0.00100109  1
  I  I87  1  0.75084585  0.43080651  0.99910090  1
  I  I88  1  0.06360767  0.24867428  1.00053438  1
  I  I89  1  0.93610846  0.74990474  0.00082883  1
  I  I90  1  0.43013927  0.24859980  0.99925244  1
  I  I91  1  0.57112963  0.74933896  0.99934564  1
  I  I92  1  0.99933676  0.99985013  0.76235642  1
  I  I93  1  0.00020414  -0.00000638  0.26634090  1
  I  I94  1  0.00066793  0.50032612  0.73916299  1
  I  I95  1  0.00035983  0.49979016  0.24641111  1
  I  I96  1  0.50038497  0.99948621  0.73927080  1
  I  I97  1  0.49959333  0.99935654  0.24650927  1
  I  I98  1  0.49902256  0.49947579  0.74567955  1
  I  I99  1  0.49983280  0.49979821  0.25600224  1
  N  N100  1  0.25615371  0.18571881  0.79324377  1
  N  N101  1  0.25030485  0.18396554  0.20598877  1
  N  N102  1  0.18546630  0.74412584  0.79316287  1
  N  N103  1  0.18414057  0.75006275  0.20616922  1
  N  N104  1  0.81604751  0.25060058  0.20592414  1
  N  N105  1  0.81416595  0.25624871  0.79338158  1
  N  N106  1  0.74977011  0.81594298  0.20605869  1
  N  N107  1  0.74405273  0.81438423  0.79318582  1
  F  F108  1  0.27473286  0.06423529  0.39722924  1
  F  F109  1  0.22116951  0.06502099  0.60286101  1
  F  F110  1  0.06426922  0.72513841  0.39717327  1
  F  F111  1  0.06494974  0.77889718  0.60270917  1
  F  F112  1  0.93499825  0.22155923  0.60280233  1
  F  F113  1  0.93579454  0.27494005  0.39712240  1
  F  F114  1  0.77859772  0.93494282  0.60262605  1
  F  F115  1  0.72507166  0.93567274  0.39705387  1
