# generated using pymatgen
data_H12PbC8I4(NF)2
_symmetry_space_group_name_H-M   'P 1'
_cell_length_a   12.44415571
_cell_length_b   12.27816127
_cell_length_c   12.39848354
_cell_angle_alpha   89.98694416
_cell_angle_beta   90.15877813
_cell_angle_gamma   88.87776837
_symmetry_Int_Tables_number   1
_chemical_formula_structural   H12PbC8I4(NF)2
_chemical_formula_sum   'H48 Pb4 C32 I16 N8 F8'
_cell_volume   1894.01033334
_cell_formula_units_Z   4
loop_
 _symmetry_equiv_pos_site_id
 _symmetry_equiv_pos_as_xyz
  1  'x, y, z'
loop_
 _atom_site_type_symbol
 _atom_site_label
 _atom_site_symmetry_multiplicity
 _atom_site_fract_x
 _atom_site_fract_y
 _atom_site_fract_z
 _atom_site_occupancy
  H  H0  1  0.34029974  0.31320405  0.76912018  1
  H  H1  1  0.36652863  0.17669789  0.76260100  1
  H  H2  1  0.30346073  0.22978572  0.86921820  1
  H  H3  1  0.14459926  0.27432908  0.77226782  1
  H  H4  1  0.17946756  0.13412441  0.75484488  1
  H  H5  1  0.20477991  0.41195405  0.62989193  1
  H  H6  1  0.26071658  0.38519534  0.26295393  1
  H  H7  1  0.15523677  0.29556368  0.23191670  1
  H  H8  1  0.38085883  0.20765669  0.25272538  1
  H  H9  1  0.33421270  0.27137571  0.14180095  1
  H  H10  1  0.27718952  0.15897605  0.18502601  1
  H  H11  1  0.20987849  0.06306985  0.57016214  1
  H  H12  1  0.29660589  0.63980266  0.76898741  1
  H  H13  1  0.15982527  0.63715787  0.76782377  1
  H  H14  1  0.22602560  0.68978304  0.87319082  1
  H  H15  1  0.28226785  0.84403274  0.77947538  1
  H  H16  1  0.14092377  0.83032744  0.76189799  1
  H  H17  1  0.41001334  0.78908441  0.63238039  1
  H  H18  1  0.37481990  0.74380549  0.26292186  1
  H  H19  1  0.28058251  0.85158671  0.23819469  1
  H  H20  1  0.21467857  0.61967901  0.25348163  1
  H  H21  1  0.25612952  0.68067529  0.14020653  1
  H  H22  1  0.14509164  0.72426843  0.20293314  1
  H  H23  1  0.06499912  0.79175280  0.58005318  1
  H  H24  1  0.68175455  0.16572049  0.22708138  1
  H  H25  1  0.81560214  0.13716242  0.23431951  1
  H  H26  1  0.76528776  0.20369599  0.12776090  1
  H  H27  1  0.72311755  0.36386668  0.22758559  1
  H  H28  1  0.86106430  0.32605797  0.24342856  1
  H  H29  1  0.58812573  0.29565113  0.36856907  1
  H  H30  1  0.61697249  0.24564357  0.73774224  1
  H  H31  1  0.70718628  0.35194758  0.76509826  1
  H  H32  1  0.79035936  0.12264228  0.74566183  1
  H  H33  1  0.73443041  0.17221792  0.85867950  1
  H  H34  1  0.84352831  0.22763575  0.80823274  1
  H  H35  1  0.93209464  0.29771478  0.42794072  1
  H  H36  1  0.85501840  0.70599261  0.22930669  1
  H  H37  1  0.86064246  0.84399182  0.23665089  1
  H  H38  1  0.80729623  0.78382807  0.12855773  1
  H  H39  1  0.65568076  0.72102813  0.22156742  1
  H  H40  1  0.66828429  0.86427827  0.24163354  1
  H  H41  1  0.70821021  0.58900863  0.36758374  1
  H  H42  1  0.74781890  0.62003605  0.73837850  1
  H  H43  1  0.64107178  0.71533155  0.75990451  1
  H  H44  1  0.87268575  0.77445880  0.75824443  1
  H  H45  1  0.80062230  0.74052113  0.86682239  1
  H  H46  1  0.76931840  0.85326925  0.79669285  1
  H  H47  1  0.70775293  0.93829082  0.42307133  1
  Pb  Pb48  1  -0.00147479  0.01397732  0.99910629  1
  Pb  Pb49  1  -0.00647181  0.51112691  0.99769836  1
  Pb  Pb50  1  0.49437947  0.99715852  0.00356995  1
  Pb  Pb51  1  0.49741653  0.50971303  0.99759712  1
  C  C52  1  0.20236409  0.21741737  0.73446064  1
  C  C53  1  0.20796211  0.23512836  0.61459867  1
  C  C54  1  0.21085119  0.34208480  0.57594138  1
  C  C55  1  0.22104130  0.35918178  0.46617674  1
  C  C56  1  0.22666169  0.27462897  0.39038991  1
  C  C57  1  0.23349627  0.30152585  0.27261738  1
  C  C58  1  0.22161605  0.16936637  0.43319616  1
  C  C59  1  0.21318468  0.14726669  0.54266986  1
  C  C60  1  0.21989195  0.79516182  0.74093395  1
  C  C61  1  0.23557703  0.78990677  0.62081788  1
  C  C62  1  0.34010646  0.78545316  0.57961865  1
  C  C63  1  0.35441953  0.77794585  0.46914788  1
  C  C64  1  0.26919049  0.77533802  0.39528523  1
  C  C65  1  0.29175047  0.77143574  0.27663337  1
  C  C66  1  0.16654683  0.78107410  0.44065807  1
  C  C67  1  0.14731861  0.78760596  0.55058207  1
  C  C68  1  0.77879426  0.30355903  0.26385240  1
  C  C69  1  0.76233711  0.29602018  0.38373568  1
  C  C70  1  0.65715164  0.29048407  0.42257284  1
  C  C71  1  0.64082779  0.27995102  0.53235650  1
  C  C72  1  0.72460164  0.27715829  0.60790457  1
  C  C73  1  0.69955720  0.27214153  0.72590149  1
  C  C74  1  0.82804362  0.28452772  0.56507725  1
  C  C75  1  0.84931726  0.29268212  0.45555518  1
  C  C76  1  0.70344135  0.78390530  0.26115981  1
  C  C77  1  0.70959314  0.76583286  0.38090714  1
  C  C78  1  0.71293351  0.65928024  0.42089775  1
  C  C79  1  0.71936439  0.64346108  0.53134272  1
  C  C80  1  0.72167925  0.72896578  0.60609786  1
  C  C81  1  0.72150980  0.70453507  0.72458924  1
  C  C82  1  0.71796308  0.83360268  0.56151486  1
  C  C83  1  0.71260866  0.85444768  0.45178521  1
  I  I84  1  0.24424215  0.05900900  0.00364931  1
  I  I85  1  0.24274700  0.44192547  0.00411958  1
  I  I86  1  0.74602237  0.96704832  0.99498187  1
  I  I87  1  0.74187655  0.59121003  0.00300070  1
  I  I88  1  0.93376265  0.26546668  -0.00170652  1
  I  I89  1  0.04325219  0.76368842  0.00491324  1
  I  I90  1  0.54537414  0.25150343  0.98875616  1
  I  I91  1  0.40659373  0.75291012  0.00174515  1
  I  I92  1  0.97664205  0.99749537  0.73867941  1
  I  I93  1  0.97115097  0.01420428  0.26041114  1
  I  I94  1  0.99163886  0.54175149  0.73669045  1
  I  I95  1  0.98480440  0.53186016  0.25617054  1
  I  I96  1  0.48375062  0.00691191  0.74990713  1
  I  I97  1  0.51874413  0.04705647  0.26901026  1
  I  I98  1  0.44980295  0.50427149  0.73616350  1
  I  I99  1  0.48393391  0.50110526  0.25081243  1
  N  N100  1  0.30998593  0.23658868  0.78625218  1
  N  N101  1  0.31117100  0.23089141  0.21102698  1
  N  N102  1  0.22652403  0.68353243  0.79005092  1
  N  N103  1  0.22222029  0.69397481  0.21577800  1
  N  N104  1  0.75783661  0.19618239  0.21047680  1
  N  N105  1  0.77083666  0.19376911  0.78695034  1
  N  N106  1  0.81363057  0.77865407  0.21162669  1
  N  N107  1  0.79581581  0.77340095  0.78933679  1
  F  F108  1  0.22493308  0.46375617  0.42992701  1
  F  F109  1  0.22680052  0.08385968  0.36262516  1
  F  F110  1  0.45635644  0.77426988  0.43007589  1
  F  F111  1  0.08054074  0.77946193  0.37190050  1
  F  F112  1  0.53817505  0.27324647  0.56875977  1
  F  F113  1  0.91248174  0.28252141  0.63593424  1
  F  F114  1  0.72180037  0.53957967  0.56953629  1
  F  F115  1  0.71951259  0.92033135  0.63089773  1
