# generated using pymatgen
data_H15PbC11I4N3
_symmetry_space_group_name_H-M   'P 1'
_cell_length_a   12.27744799
_cell_length_b   12.42116079
_cell_length_c   14.80486396
_cell_angle_alpha   89.80564548
_cell_angle_beta   88.90276796
_cell_angle_gamma   89.75542626
_symmetry_Int_Tables_number   1
_chemical_formula_structural   H15PbC11I4N3
_chemical_formula_sum   'H60 Pb4 C44 I16 N12'
_cell_volume   2257.29713487
_cell_formula_units_Z   4
loop_
 _symmetry_equiv_pos_site_id
 _symmetry_equiv_pos_as_xyz
  1  'x, y, z'
loop_
 _atom_site_type_symbol
 _atom_site_label
 _atom_site_symmetry_multiplicity
 _atom_site_fract_x
 _atom_site_fract_y
 _atom_site_fract_z
 _atom_site_occupancy
  H  H0  1  0.16846821  0.32579343  0.81555732  1
  H  H1  1  0.17676140  0.19131542  0.80940143  1
  H  H2  1  0.24382507  0.25711860  0.88883199  1
  H  H3  1  0.37150123  0.19972378  0.77508107  1
  H  H4  1  0.36404969  0.34259295  0.78350083  1
  H  H5  1  0.29092820  0.45348508  0.66075247  1
  H  H6  1  0.20610189  0.39916873  0.36559311  1
  H  H7  1  0.13091961  0.16989553  0.21435204  1
  H  H8  1  0.11325238  0.31068707  0.23347893  1
  H  H9  1  0.31630230  0.20341724  0.16778225  1
  H  H10  1  0.23228424  0.28348665  0.11258164  1
  H  H11  1  0.30927217  0.33315239  0.19570409  1
  H  H12  1  0.20367832  0.05389636  0.32837510  1
  H  H13  1  0.25320083  0.02654636  0.48866856  1
  H  H14  1  0.29446942  0.10687212  0.64046060  1
  H  H15  1  0.32750702  0.83893781  0.81300914  1
  H  H16  1  0.19159227  0.83249646  0.80720286  1
  H  H17  1  0.25750422  0.76448824  0.88828644  1
  H  H18  1  0.20184329  0.63752064  0.77935025  1
  H  H19  1  0.34612830  0.64557725  0.78613957  1
  H  H20  1  0.45770202  0.71458584  0.65945383  1
  H  H21  1  0.40234115  0.79386708  0.36265389  1
  H  H22  1  0.17147950  0.86253984  0.21103727  1
  H  H23  1  0.31457459  0.87628233  0.22667011  1
  H  H24  1  0.20074429  0.67200864  0.18052952  1
  H  H25  1  0.27882720  0.74975978  0.11234667  1
  H  H26  1  0.33411636  0.68345707  0.19834006  1
  H  H27  1  0.05333117  0.79177435  0.32866001  1
  H  H28  1  0.02550157  0.74598252  0.49086022  1
  H  H29  1  0.10709858  0.70838919  0.64311139  1
  H  H30  1  0.66898160  0.33293987  0.18485038  1
  H  H31  1  0.80446700  0.32021146  0.18805155  1
  H  H32  1  0.73658920  0.25374649  0.10995942  1
  H  H33  1  0.79161580  0.12837448  0.22104316  1
  H  H34  1  0.64766863  0.13961695  0.21600342  1
  H  H35  1  0.53921623  0.20744311  0.34310333  1
  H  H36  1  0.59908954  0.29379837  0.63685397  1
  H  H37  1  0.83375691  0.35654017  0.78845310  1
  H  H38  1  0.69315093  0.38405681  0.77010227  1
  H  H39  1  0.78738752  0.17185232  0.82097005  1
  H  H40  1  0.70883714  0.25104366  0.88322469  1
  H  H41  1  0.65771067  0.18943706  0.79399443  1
  H  H42  1  0.94902383  0.29564355  0.66641695  1
  H  H43  1  0.97451445  0.24925225  0.50430159  1
  H  H44  1  0.89053579  0.20724175  0.35404050  1
  H  H45  1  0.67240528  0.66250903  0.18440414  1
  H  H46  1  0.67083337  0.79757069  0.19106939  1
  H  H47  1  0.74658224  0.73475069  0.11052697  1
  H  H48  1  0.86624707  0.79886677  0.22113721  1
  H  H49  1  0.86785323  0.65604192  0.21461026  1
  H  H50  1  0.79234554  0.54367879  0.33828601  1
  H  H51  1  0.70839383  0.59732802  0.63634504  1
  H  H52  1  0.64172858  0.82484736  0.79420906  1
  H  H53  1  0.62478365  0.68433760  0.77587164  1
  H  H54  1  0.83258566  0.79217402  0.82228799  1
  H  H55  1  0.75692033  0.71056294  0.88612364  1
  H  H56  1  0.82383837  0.66271820  0.79574006  1
  H  H57  1  0.70597384  0.94225779  0.67488288  1
  H  H58  1  0.74955761  0.97017789  0.51195411  1
  H  H59  1  0.78971785  0.89013007  0.35817600  1
  Pb  Pb60  1  0.00563345  0.99886189  0.00541375  1
  Pb  Pb61  1  0.00858137  0.50411675  0.00227024  1
  Pb  Pb62  1  0.51162258  0.99100396  0.00489100  1
  Pb  Pb63  1  0.49855843  0.49092238  0.00180711  1
  C  C64  1  0.32063738  0.27062826  0.76107224  1
  C  C65  1  0.29297847  0.27808596  0.66318380  1
  C  C66  1  0.27988088  0.38045942  0.62076968  1
  C  C67  1  0.24488612  0.30437917  0.48312889  1
  C  C68  1  0.21783111  0.31742475  0.39114719  1
  C  C69  1  0.20418542  0.22838325  0.33639142  1
  C  C70  1  0.16987493  0.24256700  0.24033794  1
  C  C71  1  0.21764265  0.12290414  0.37197014  1
  C  C72  1  0.24396898  0.10764758  0.46112496  1
  C  C73  1  0.25767082  0.19740611  0.51865239  1
  C  C74  1  0.28263266  0.18685872  0.61113896  1
  C  C75  1  0.27293712  0.68793208  0.76311326  1
  C  C76  1  0.28024038  0.71274104  0.66414256  1
  C  C77  1  0.38371247  0.72491040  0.62012023  1
  C  C78  1  0.30661126  0.75659485  0.48234240  1
  C  C79  1  0.31975828  0.78191122  0.38947892  1
  C  C80  1  0.22972055  0.79347780  0.33533270  1
  C  C81  1  0.24435474  0.82302405  0.23758349  1
  C  C82  1  0.12298893  0.78010375  0.37227146  1
  C  C83  1  0.10756898  0.75556063  0.46232796  1
  C  C84  1  0.19841457  0.74365219  0.51931832  1
  C  C85  1  0.18792464  0.72066511  0.61267823  1
  C  C86  1  0.72166164  0.18095531  0.23722501  1
  C  C87  1  0.71656923  0.20839319  0.33559100  1
  C  C88  1  0.61381196  0.21956104  0.38114673  1
  C  C89  1  0.69331010  0.25547520  0.51693621  1
  C  C90  1  0.68155814  0.28205132  0.60951871  1
  C  C91  1  0.77247794  0.29509237  0.66231440  1
  C  C92  1  0.75871003  0.32446836  0.76003834  1
  C  C93  1  0.87866578  0.28255863  0.62398917  1
  C  C94  1  0.89280012  0.25760698  0.53395467  1
  C  C95  1  0.80103003  0.24386907  0.47844485  1
  C  C96  1  0.80996531  0.21924479  0.38532598  1
  C  C97  1  0.81918041  0.72583388  0.23673398  1
  C  C98  1  0.79079527  0.71890376  0.33550187  1
  C  C99  1  0.77989314  0.61665841  0.37860809  1
  C  C100  1  0.74461102  0.69239678  0.51747370  1
  C  C101  1  0.71964299  0.67912710  0.61059803  1
  C  C102  1  0.70765370  0.76791476  0.66630808  1
  C  C103  1  0.67993117  0.75279796  0.76463727  1
  C  C104  1  0.71902488  0.87345697  0.63030544  1
  C  C105  1  0.74225875  0.88899203  0.53985043  1
  C  C106  1  0.75563040  0.79941302  0.48149547  1
  C  C107  1  0.77933256  0.81013677  0.38797320  1
  I  I108  1  0.25755009  0.97374990  0.02961212  1
  I  I109  1  0.25310674  0.55897625  0.98354163  1
  I  I110  1  0.75711821  0.07230139  0.00227976  1
  I  I111  1  0.75250779  0.47812110  0.00767412  1
  I  I112  1  0.05020226  0.25484646  0.01113203  1
  I  I113  1  0.94537397  0.75486131  0.00651895  1
  I  I114  1  0.45284797  0.24476831  0.99532607  1
  I  I115  1  0.52581456  0.74446397  0.98329977  1
  I  I116  1  0.03907858  0.98906670  0.78455499  1
  I  I117  1  0.97702794  0.99964462  0.21968960  1
  I  I118  1  0.00948866  0.50677719  0.78286978  1
  I  I119  1  0.04783805  0.52126587  0.21660722  1
  I  I120  1  0.49111911  0.00567111  0.78675845  1
  I  I121  1  0.53516863  0.94442116  0.22032133  1
  I  I122  1  0.51533337  0.49603911  0.78636351  1
  I  I123  1  0.50054907  0.47976137  0.22222433  1
  N  N124  1  0.22092633  0.26057721  0.82189125  1
  N  N125  1  0.25667153  0.39442383  0.53493327  1
  N  N126  1  0.26356607  0.26750779  0.17606364  1
  N  N127  1  0.26149218  0.78758358  0.82104495  1
  N  N128  1  0.39778230  0.74611148  0.53335610  1
  N  N129  1  0.26591760  0.72584570  0.17871140  1
  N  N130  1  0.73357986  0.27876079  0.17688893  1
  N  N131  1  0.60126007  0.24193584  0.46769843  1
  N  N132  1  0.72608732  0.22863895  0.81724206  1
  N  N133  1  0.72065094  0.73014795  0.17741547  1
  N  N134  1  0.75764628  0.60243675  0.46528444  1
  N  N135  1  0.77937853  0.72816126  0.81995068  1
