# generated using pymatgen
data_H18PbC13(I2N)2
_symmetry_space_group_name_H-M   'P 1'
_cell_length_a   12.34587607
_cell_length_b   12.39456013
_cell_length_c   15.10948028
_cell_angle_alpha   92.50088223
_cell_angle_beta   91.24455580
_cell_angle_gamma   90.15886662
_symmetry_Int_Tables_number   1
_chemical_formula_structural   H18PbC13(I2N)2
_chemical_formula_sum   'H72 Pb4 C52 I16 N8'
_cell_volume   2309.31533696
_cell_formula_units_Z   4
loop_
 _symmetry_equiv_pos_site_id
 _symmetry_equiv_pos_as_xyz
  1  'x, y, z'
loop_
 _atom_site_type_symbol
 _atom_site_label
 _atom_site_symmetry_multiplicity
 _atom_site_fract_x
 _atom_site_fract_y
 _atom_site_fract_z
 _atom_site_occupancy
  H  H0  1  0.17298904  0.00605024  0.48045090  1
  H  H1  1  0.27042053  0.96778070  0.56140893  1
  H  H2  1  0.31210730  0.00528975  0.45507641  1
  H  H3  1  0.29059580  0.09556245  0.67719616  1
  H  H4  1  0.35832642  0.22330977  0.79268867  1
  H  H5  1  0.34830010  0.36497677  0.78165667  1
  H  H6  1  0.15166261  0.34962787  0.79782608  1
  H  H7  1  0.22117047  0.30378867  0.88433585  1
  H  H8  1  0.16276874  0.21690410  0.81145706  1
  H  H9  1  0.28637683  0.43799507  0.63857155  1
  H  H10  1  0.25493414  0.50408225  0.48779433  1
  H  H11  1  0.21561298  0.46722971  0.32842689  1
  H  H12  1  0.12141553  0.32626660  0.22115940  1
  H  H13  1  0.15358263  0.18715335  0.23071796  1
  H  H14  1  0.31296525  0.35637617  0.18416609  1
  H  H15  1  0.24351565  0.27312062  0.11332761  1
  H  H16  1  0.33418523  0.22204275  0.18569294  1
  H  H17  1  0.22337388  0.12523366  0.36493645  1
  H  H18  1  0.00566448  0.82686957  0.48725963  1
  H  H19  1  0.96625357  0.72926047  0.56305814  1
  H  H20  1  0.00356007  0.68849915  0.45370478  1
  H  H21  1  0.09406396  0.70064990  0.67417834  1
  H  H22  1  0.21982940  0.63297530  0.78355743  1
  H  H23  1  0.36255468  0.63908502  0.77015380  1
  H  H24  1  0.35366713  0.83608862  0.79662573  1
  H  H25  1  0.30333904  0.76946458  0.88084542  1
  H  H26  1  0.22033674  0.82762955  0.81092631  1
  H  H27  1  0.43795840  0.70833849  0.63081489  1
  H  H28  1  0.50505342  0.75006865  0.48229167  1
  H  H29  1  0.46847497  0.79478888  0.32662646  1
  H  H30  1  0.32760502  0.87512680  0.22077197  1
  H  H31  1  0.18809654  0.84714526  0.23385024  1
  H  H32  1  0.35100099  0.67725145  0.18665587  1
  H  H33  1  0.27225607  0.74336449  0.11483246  1
  H  H34  1  0.21567832  0.66246022  0.18753514  1
  H  H35  1  0.12517594  0.78003583  0.36763222  1
  H  H36  1  0.99903654  0.33170046  0.52418060  1
  H  H37  1  0.03566635  0.23420863  0.44067897  1
  H  H38  1  0.99268657  0.19255750  0.54531820  1
  H  H39  1  0.91073727  0.20985405  0.32476674  1
  H  H40  1  0.78855331  0.13170023  0.21448078  1
  H  H41  1  0.64527869  0.13355174  0.22754022  1
  H  H42  1  0.65016196  0.32813224  0.19598096  1
  H  H43  1  0.69293482  0.24344901  0.11365116  1
  H  H44  1  0.78130208  0.31685908  0.17392153  1
  H  H45  1  0.56606238  0.21799639  0.36359945  1
  H  H46  1  0.49608890  0.25466723  0.51593883  1
  H  H47  1  0.53063330  0.28385141  0.67657672  1
  H  H48  1  0.67053858  0.36073941  0.79281906  1
  H  H49  1  0.81074402  0.33721960  0.77632255  1
  H  H50  1  0.64928515  0.16231567  0.80645781  1
  H  H51  1  0.72713935  0.22454184  0.88434572  1
  H  H52  1  0.78456911  0.14944481  0.80389659  1
  H  H53  1  0.87441699  0.28467944  0.63634797  1
  H  H54  1  0.66901972  0.99891947  0.52045171  1
  H  H55  1  0.76856345  0.03553793  0.44390995  1
  H  H56  1  0.80804681  0.99307370  0.55073472  1
  H  H57  1  0.79683551  0.90894068  0.32822063  1
  H  H58  1  0.87473316  0.78178881  0.22052642  1
  H  H59  1  0.86179810  0.64018290  0.22962842  1
  H  H60  1  0.66958589  0.65476864  0.19007904  1
  H  H61  1  0.75157753  0.70641289  0.11321942  1
  H  H62  1  0.68254223  0.78803763  0.18022114  1
  H  H63  1  0.78210944  0.56600808  0.36315842  1
  H  H64  1  0.74161964  0.49819749  0.51165711  1
  H  H65  1  0.70332310  0.53432410  0.66985118  1
  H  H66  1  0.62081350  0.67638629  0.78090053  1
  H  H67  1  0.65127879  0.81557796  0.76905376  1
  H  H68  1  0.81940456  0.64796948  0.80445224  1
  H  H69  1  0.76007955  0.72632634  0.88207959  1
  H  H70  1  0.83623091  0.78163545  0.80699678  1
  H  H71  1  0.70781544  0.87657526  0.63326977  1
  Pb  Pb72  1  0.98987555  0.00724016  0.00681583  1
  Pb  Pb73  1  1.00665909  0.51200576  0.99541884  1
  Pb  Pb74  1  0.47726582  0.01092592  0.00233242  1
  Pb  Pb75  1  0.51668860  0.51209821  0.00391755  1
  C  C76  1  0.25467090  0.02345323  0.50828651  1
  C  C77  1  0.26374108  0.13836821  0.54290851  1
  C  C78  1  0.28035328  0.16177464  0.63235991  1
  C  C79  1  0.28789439  0.26929972  0.66786878  1
  C  C80  1  0.30786277  0.28745154  0.76560530  1
  C  C81  1  0.27925578  0.35472548  0.61225489  1
  C  C82  1  0.26177578  0.33515459  0.51979196  1
  C  C83  1  0.24965134  0.42092290  0.46102436  1
  C  C84  1  0.22857885  0.40033798  0.37199651  1
  C  C85  1  0.21868239  0.29248017  0.33681633  1
  C  C86  1  0.18469685  0.26985790  0.24172080  1
  C  C87  1  0.23282573  0.20764553  0.39238906  1
  C  C88  1  0.25403113  0.22577220  0.48446819  1
  C  C89  1  0.02239932  0.74524873  0.50997137  1
  C  C90  1  0.13754201  0.73498361  0.54194920  1
  C  C91  1  0.16062104  0.71303748  0.62915929  1
  C  C92  1  0.26839680  0.70350406  0.66195655  1
  C  C93  1  0.28603822  0.68124748  0.75786606  1
  C  C94  1  0.35458141  0.71604226  0.60619228  1
  C  C95  1  0.33541587  0.73905075  0.51598020  1
  C  C96  1  0.42174488  0.75547053  0.45717904  1
  C  C97  1  0.40123049  0.77963295  0.37022756  1
  C  C98  1  0.29300584  0.78716995  0.33722092  1
  C  C99  1  0.27010834  0.81467926  0.24295589  1
  C  C100  1  0.20782912  0.77180689  0.39330719  1
  C  C101  1  0.22570579  0.74814953  0.48334924  1
  C  C102  1  0.97881274  0.25160250  0.49390449  1
  C  C103  1  0.86454234  0.24666102  0.45846680  1
  C  C104  1  0.84333611  0.22513419  0.36926680  1
  C  C105  1  0.73610387  0.21499406  0.33435884  1
  C  C106  1  0.72021365  0.18052137  0.23860089  1
  C  C107  1  0.64879100  0.22848489  0.38978327  1
  C  C108  1  0.66621734  0.25034870  0.48204210  1
  C  C109  1  0.57920799  0.25986011  0.54202685  1
  C  C110  1  0.59857568  0.27528668  0.63194014  1
  C  C111  1  0.70641744  0.28298041  0.66667449  1
  C  C112  1  0.72920437  0.30356331  0.76397262  1
  C  C113  1  0.79210386  0.27617527  0.60932776  1
  C  C114  1  0.77530314  0.25907290  0.51673698  1
  C  C115  1  0.74980129  0.97903164  0.49514591  1
  C  C116  1  0.75480870  0.86480119  0.45862621  1
  C  C117  1  0.77945841  0.84241286  0.37103138  1
  C  C118  1  0.78871620  0.73498447  0.33585719  1
  C  C119  1  0.82048735  0.71749531  0.24123917  1
  C  C120  1  0.77295899  0.64889621  0.38943693  1
  C  C121  1  0.74778273  0.66737005  0.47996690  1
  C  C122  1  0.73473213  0.58126796  0.53801668  1
  C  C123  1  0.71404813  0.60144378  0.62646011  1
  C  C124  1  0.70450980  0.70939885  0.66112690  1
  C  C125  1  0.68094501  0.73302306  0.75686592  1
  C  C126  1  0.71596841  0.79432631  0.60573460  1
  C  C127  1  0.73826617  0.77656715  0.51477910  1
  I  I128  1  0.23472161  0.91204629  0.01065787  1
  I  I129  1  0.26369397  0.53740658  0.98733926  1
  I  I130  1  0.73508180  0.05613200  0.01278223  1
  I  I131  1  0.76439385  0.42867901  0.99812634  1
  I  I132  1  0.06720233  0.25251776  0.01158200  1
  I  I133  1  0.92240227  0.75205581  0.00993548  1
  I  I134  1  0.45908594  0.26015499  0.98676849  1
  I  I135  1  0.56161777  0.76256391  0.99191126  1
  I  I136  1  0.96224891  0.01049525  0.78653531  1
  I  I137  1  0.99759473  0.00117633  0.21614328  1
  I  I138  1  -0.00095737  0.49915936  0.77774610  1
  I  I139  1  0.05110680  0.53871359  0.20426055  1
  I  I140  1  0.48630402  0.99693536  0.78474139  1
  I  I141  1  0.44602907  0.05657462  0.21269761  1
  I  I142  1  0.51417358  0.50004471  0.79872026  1
  I  I143  1  0.52119962  0.51268706  0.22494529  1
  N  N144  1  0.20470274  0.28904077  0.81729898  1
  N  N145  1  0.27540786  0.28198245  0.17761797  1
  N  N146  1  0.29124833  0.78429769  0.81435719  1
  N  N147  1  0.27851061  0.71794173  0.17942506  1
  N  N148  1  0.71039829  0.27359441  0.17773518  1
  N  N149  1  0.72193631  0.20363729  0.81715267  1
  N  N150  1  0.72457787  0.71650546  0.17779661  1
  N  N151  1  0.78007353  0.72111070  0.81559890  1
