# generated using pymatgen
data_H15PbC10I4N3
_symmetry_space_group_name_H-M   'P 1'
_cell_length_a   12.12319175
_cell_length_b   12.45500616
_cell_length_c   14.46550890
_cell_angle_alpha   88.26531369
_cell_angle_beta   90.35027429
_cell_angle_gamma   90.05863616
_symmetry_Int_Tables_number   1
_chemical_formula_structural   H15PbC10I4N3
_chemical_formula_sum   'H60 Pb4 C40 I16 N12'
_cell_volume   2183.16868959
_cell_formula_units_Z   4
loop_
 _symmetry_equiv_pos_site_id
 _symmetry_equiv_pos_as_xyz
  1  'x, y, z'
loop_
 _atom_site_type_symbol
 _atom_site_label
 _atom_site_symmetry_multiplicity
 _atom_site_fract_x
 _atom_site_fract_y
 _atom_site_fract_z
 _atom_site_occupancy
  H  H0  1  0.23836539  0.17498674  0.87887396  1
  H  H1  1  0.18340383  0.28439316  0.82887960  1
  H  H2  1  0.16328493  0.16219282  0.78290759  1
  H  H3  1  0.37176172  0.29142616  0.79333637  1
  H  H4  1  0.36973599  0.15299138  0.76529830  1
  H  H5  1  0.29814150  0.42855928  0.68631631  1
  H  H6  1  0.25664382  0.48559009  0.52369581  1
  H  H7  1  0.22094243  0.39742992  0.33521746  1
  H  H8  1  0.13967759  0.18501852  0.22901147  1
  H  H9  1  0.25376929  0.09874639  0.24808935  1
  H  H10  1  0.29158203  0.20739700  0.12123921  1
  H  H11  1  0.25641344  0.32228886  0.16998245  1
  H  H12  1  0.37171334  0.26074357  0.20432354  1
  H  H13  1  0.26754953  0.07195887  0.41961640  1
  H  H14  1  0.30136861  0.09398478  0.61476770  1
  H  H15  1  0.20809213  0.78785931  0.87551770  1
  H  H16  1  0.30331275  0.84275876  0.80271739  1
  H  H17  1  0.16814761  0.84688747  0.77642052  1
  H  H18  1  0.30393444  0.64742109  0.79793631  1
  H  H19  1  0.16000583  0.65093290  0.77142994  1
  H  H20  1  0.44066053  0.70236778  0.68621498  1
  H  H21  1  0.49417249  0.73853732  0.52275715  1
  H  H22  1  0.39687777  0.78151378  0.33417885  1
  H  H23  1  0.19047177  0.85882444  0.22010474  1
  H  H24  1  0.08545096  0.76437981  0.24549475  1
  H  H25  1  0.19558769  0.71139769  0.12160329  1
  H  H26  1  0.31287546  0.71099854  0.18280997  1
  H  H27  1  0.21102628  0.62152196  0.20931431  1
  H  H28  1  0.06441977  0.74156998  0.41784128  1
  H  H29  1  0.09387943  0.70896617  0.61401021  1
  H  H30  1  0.78023883  0.30849302  0.12188821  1
  H  H31  1  0.69104043  0.35593668  0.19938660  1
  H  H32  1  0.82857581  0.36771869  0.21502893  1
  H  H33  1  0.71046853  0.15813912  0.20652631  1
  H  H34  1  0.85285579  0.17673870  0.23194174  1
  H  H35  1  0.56758792  0.20833551  0.31447378  1
  H  H36  1  0.51042667  0.23635091  0.47685186  1
  H  H37  1  0.60362924  0.27667777  0.66485611  1
  H  H38  1  0.83679876  0.38010662  0.75866394  1
  H  H39  1  0.91101767  0.25721005  0.75832057  1
  H  H40  1  0.79607672  0.25289598  0.88503380  1
  H  H41  1  0.68312750  0.29374665  0.82572949  1
  H  H42  1  0.73471278  0.17023404  0.81080693  1
  H  H43  1  0.93832638  0.25644544  0.58385018  1
  H  H44  1  0.91263964  0.22848878  0.38930520  1
  H  H45  1  0.68669408  0.77610764  0.11851624  1
  H  H46  1  0.64787222  0.68436271  0.19880863  1
  H  H47  1  0.62267152  0.81685361  0.21316784  1
  H  H48  1  0.84711777  0.72000086  0.19940945  1
  H  H49  1  0.81679901  0.85661061  0.22181303  1
  H  H50  1  0.79278338  0.57547158  0.30988165  1
  H  H51  1  0.76146427  0.51590806  0.47380566  1
  H  H52  1  0.72576872  0.60055275  0.66092686  1
  H  H53  1  0.63472887  0.83940012  0.75906652  1
  H  H54  1  0.77390930  0.88320515  0.75886740  1
  H  H55  1  0.75091465  0.75791379  0.87941035  1
  H  H56  1  0.69059414  0.66443271  0.81378673  1
  H  H57  1  0.82482724  0.69097705  0.80051544  1
  H  H58  1  0.74730614  0.92905898  0.57773138  1
  H  H59  1  0.77499515  0.90961334  0.38122487  1
  Pb  Pb60  1  0.98982357  0.01146042  1.00086143  1
  Pb  Pb61  1  0.00732421  0.51458626  0.99253639  1
  Pb  Pb62  1  0.49980065  -0.00728233  1.00263023  1
  Pb  Pb63  1  0.50340127  0.49477953  0.00224165  1
  C  C64  1  0.32412891  0.22892701  0.75888102  1
  C  C65  1  0.29929550  0.25872406  0.65979585  1
  C  C66  1  0.28685368  0.36847597  0.63371361  1
  C  C67  1  0.26445201  0.40065911  0.54298203  1
  C  C68  1  0.25481734  0.32176272  0.47590973  1
  C  C69  1  0.23613569  0.32618713  0.37834610  1
  C  C70  1  0.23951580  0.22231231  0.34838448  1
  C  C71  1  0.22587012  0.18216500  0.25312247  1
  C  C72  1  0.26812160  0.21107668  0.50284319  1
  C  C73  1  0.28982467  0.17842106  0.59450621  1
  C  C74  1  0.23899623  0.69230107  0.76033315  1
  C  C75  1  0.26515323  0.70728337  0.65951278  1
  C  C76  1  0.37721560  0.71419112  0.63310811  1
  C  C77  1  0.40742434  0.73389451  0.54201639  1
  C  C78  1  0.32387087  0.74620160  0.47472996  1
  C  C79  1  0.32498647  0.76641333  0.37708436  1
  C  C80  1  0.21689295  0.76566439  0.34687785  1
  C  C81  1  0.17457174  0.77843364  0.25046223  1
  C  C82  1  0.21086244  0.73559395  0.50148395  1
  C  C83  1  0.18025096  0.71702699  0.59375261  1
  C  C84  1  0.76996554  0.20931072  0.24221179  1
  C  C85  1  0.74223654  0.21902356  0.34246847  1
  C  C86  1  0.62974737  0.22007130  0.36799580  1
  C  C87  1  0.59750463  0.23455937  0.45847573  1
  C  C88  1  0.67961740  0.24758711  0.52619716  1
  C  C89  1  0.67678969  0.26527001  0.62336446  1
  C  C90  1  0.78474279  0.27142204  0.65342404  1
  C  C91  1  0.82923497  0.29339237  0.74685140  1
  C  C92  1  0.79309282  0.24441632  0.50007653  1
  C  C93  1  0.82570847  0.23037689  0.40867340  1
  C  C94  1  0.79059090  0.77337372  0.23539056  1
  C  C95  1  0.78326596  0.74489191  0.33657507  1
  C  C96  1  0.78097635  0.63459979  0.36306347  1
  C  C97  1  0.76460682  0.60102440  0.45411347  1
  C  C98  1  0.75208237  0.67931507  0.52100764  1
  C  C99  1  0.73546221  0.67316794  0.61850760  1
  C  C100  1  0.73322563  0.77676803  0.64886863  1
  C  C101  1  0.72006988  0.81433697  0.74479313  1
  C  C102  1  0.75791517  0.79060513  0.49428129  1
  C  C103  1  0.77244032  0.82467367  0.40211270  1
  I  I104  1  0.24728324  0.05246105  0.01822012  1
  I  I105  1  0.25320856  0.42104316  0.97335304  1
  I  I106  1  0.74788101  0.91773382  0.98649360  1
  I  I107  1  0.75697261  0.55752645  0.03494514  1
  I  I108  1  0.94546709  0.26186671  -0.00056548  1
  I  I109  1  0.05789189  0.76263771  0.00132238  1
  I  I110  1  0.56919925  0.23874767  0.00712033  1
  I  I111  1  0.43062230  0.74007063  0.01268261  1
  I  I112  1  0.00990950  0.01784323  0.76520081  1
  I  I113  1  0.98824165  0.00413743  0.21633019  1
  I  I114  1  0.96868091  0.55045227  0.77514362  1
  I  I115  1  0.03500845  0.48591357  0.21737933  1
  I  I116  1  0.46456514  0.96608308  0.78196500  1
  I  I117  1  0.49918407  0.98191974  0.22554031  1
  I  I118  1  0.55986398  0.49303942  0.78782484  1
  I  I119  1  0.50076741  0.47023496  0.22557378  1
  N  N120  1  0.22034942  0.21222111  0.81480283  1
  N  N121  1  0.29118497  0.24775410  0.18359835  1
  N  N122  1  0.25850606  0.15255229  0.42348363  1
  N  N123  1  0.22941610  0.79911588  0.80641261  1
  N  N124  1  0.22870489  0.70002033  0.18818867  1
  N  N125  1  0.14782332  0.74689436  0.42176478  1
  N  N126  1  0.76669008  0.31755870  0.19191106  1
  N  N127  1  0.75517434  0.24921095  0.82098190  1
  N  N128  1  0.85487965  0.25862046  0.57941165  1
  N  N129  1  0.67935728  0.76094651  0.18915078  1
  N  N130  1  0.74835174  0.72667007  0.81355077  1
  N  N131  1  0.74640819  0.84795134  0.57414263  1
