# generated using pymatgen
data_H15PbC11I4N3
_symmetry_space_group_name_H-M   'P 1'
_cell_length_a   12.47886156
_cell_length_b   12.51919316
_cell_length_c   14.71759354
_cell_angle_alpha   89.61999425
_cell_angle_beta   90.00138564
_cell_angle_gamma   89.30814488
_symmetry_Int_Tables_number   1
_chemical_formula_structural   H15PbC11I4N3
_chemical_formula_sum   'H60 Pb4 C44 I16 N12'
_cell_volume   2299.04194487
_cell_formula_units_Z   4
loop_
 _symmetry_equiv_pos_site_id
 _symmetry_equiv_pos_as_xyz
  1  'x, y, z'
loop_
 _atom_site_type_symbol
 _atom_site_label
 _atom_site_symmetry_multiplicity
 _atom_site_fract_x
 _atom_site_fract_y
 _atom_site_fract_z
 _atom_site_occupancy
  H  H0  1  0.35853815  0.15501126  0.79608482  1
  H  H1  1  0.28832771  0.18796251  0.88728490  1
  H  H2  1  0.33271337  0.28492065  0.81801838  1
  H  H3  1  0.17085738  0.11822485  0.77218981  1
  H  H4  1  0.13766045  0.25242400  0.80089734  1
  H  H5  1  0.20949691  0.40364262  0.70489431  1
  H  H6  1  0.23658754  0.46804318  0.54785753  1
  H  H7  1  0.26167157  0.42453740  0.38069799  1
  H  H8  1  0.36397921  0.32833180  0.22512204  1
  H  H9  1  0.22464156  0.35124750  0.21059180  1
  H  H10  1  0.30920298  0.21315955  0.11187805  1
  H  H11  1  0.33003995  0.13578832  0.20344640  1
  H  H12  1  0.20421770  0.16503129  0.17156807  1
  H  H13  1  0.24789850  0.03835287  0.44929343  1
  H  H14  1  0.21982756  0.07600047  0.61571604  1
  H  H15  1  0.15578427  0.64201948  0.79749124  1
  H  H16  1  0.18793986  0.71180050  0.88862696  1
  H  H17  1  0.28519043  0.66506677  0.82119817  1
  H  H18  1  0.11930344  0.83089370  0.77236007  1
  H  H19  1  0.25385001  0.85983856  0.80268096  1
  H  H20  1  0.40626221  0.79106985  0.70614624  1
  H  H21  1  0.47023592  0.76363664  0.54909205  1
  H  H22  1  0.42595046  0.73812690  0.38203180  1
  H  H23  1  0.32848430  0.63701413  0.22580306  1
  H  H24  1  0.35082483  0.77542371  0.21203015  1
  H  H25  1  0.21231580  0.69580804  0.11309697  1
  H  H26  1  0.13406505  0.67591043  0.20407251  1
  H  H27  1  0.16375862  0.80087365  0.17384220  1
  H  H28  1  0.03859010  0.75265963  0.45054915  1
  H  H29  1  0.07705029  0.78016058  0.61685266  1
  H  H30  1  0.84103581  0.14426374  0.20550920  1
  H  H31  1  0.81892951  0.21768929  0.11335145  1
  H  H32  1  0.71431703  0.17546628  0.17570114  1
  H  H33  1  0.88153780  0.33288732  0.22889044  1
  H  H34  1  0.74700913  0.36592362  0.19875849  1
  H  H35  1  0.59459989  0.29453416  0.29429067  1
  H  H36  1  0.53056754  0.26563735  0.45122068  1
  H  H37  1  0.57475129  0.24068509  0.61871601  1
  H  H38  1  0.67370561  0.13794522  0.77589812  1
  H  H39  1  0.64699719  0.27686848  0.78734015  1
  H  H40  1  0.78740751  0.20172854  0.88958268  1
  H  H41  1  0.86460716  0.17544733  0.79923409  1
  H  H42  1  0.83479799  0.30231789  0.82536152  1
  H  H43  1  0.96216567  0.25173513  0.55121178  1
  H  H44  1  0.92367808  0.28142516  0.38452541  1
  H  H45  1  0.85455855  0.84241153  0.19995266  1
  H  H46  1  0.78106013  0.81169018  0.10970630  1
  H  H47  1  0.83066998  0.71349616  0.17588475  1
  H  H48  1  0.66590740  0.87875736  0.22701431  1
  H  H49  1  0.63655739  0.74447448  0.19819349  1
  H  H50  1  0.70722106  0.59349955  0.29531038  1
  H  H51  1  0.73445625  0.53021599  0.45292835  1
  H  H52  1  0.75850068  0.57493110  0.61995505  1
  H  H53  1  0.86095087  0.67353055  0.77664273  1
  H  H54  1  0.72245039  0.64810742  0.78824101  1
  H  H55  1  0.79870143  0.78769651  0.88801486  1
  H  H56  1  0.81480768  0.86672984  0.79655977  1
  H  H57  1  0.69148479  0.83170027  0.82855453  1
  H  H58  1  0.74884784  0.96068776  0.54817085  1
  H  H59  1  0.71995172  0.92184177  0.38174344  1
  Pb  Pb60  1  -0.00154431  0.99833678  -0.00151743  1
  Pb  Pb61  1  0.00497788  0.49738849  0.00406666  1
  Pb  Pb62  1  0.49632938  0.99690995  0.00320902  1
  Pb  Pb63  1  0.50739161  0.49917785  0.99482449  1
  C  C64  1  0.19729932  0.20124251  0.76683182  1
  C  C65  1  0.21346145  0.23542134  0.66997266  1
  C  C66  1  0.21891887  0.34648351  0.64986101  1
  C  C67  1  0.23340797  0.38258120  0.56240378  1
  C  C68  1  0.24376987  0.30862885  0.49029309  1
  C  C69  1  0.25794003  0.33993767  0.39868887  1
  C  C70  1  0.26682323  0.26221486  0.33294503  1
  C  C71  1  0.28438285  0.29248053  0.23481280  1
  C  C72  1  0.25009338  0.12461639  0.43660960  1
  C  C73  1  0.23932015  0.19642631  0.51025914  1
  C  C74  1  0.22386758  0.16156038  0.60111564  1
  C  C75  1  0.20257646  0.80219680  0.76787151  1
  C  C76  1  0.23720736  0.78590292  0.67130702  1
  C  C77  1  0.34868627  0.78081837  0.65121849  1
  C  C78  1  0.38453979  0.76633410  0.56379122  1
  C  C79  1  0.31006318  0.75593832  0.49161651  1
  C  C80  1  0.34111780  0.74205909  0.40004190  1
  C  C81  1  0.26277030  0.73370248  0.33432388  1
  C  C82  1  0.29223030  0.71688449  0.23608870  1
  C  C83  1  0.12513311  0.75025099  0.43795218  1
  C  C84  1  0.19755640  0.76054609  0.51157381  1
  C  C85  1  0.16290455  0.77577438  0.60233675  1
  C  C86  1  0.79827970  0.30622343  0.23329488  1
  C  C87  1  0.76361024  0.28825792  0.32969363  1
  C  C88  1  0.65215480  0.28322406  0.34940501  1
  C  C89  1  0.61628691  0.26799377  0.43679116  1
  C  C90  1  0.69074269  0.25682810  0.50918843  1
  C  C91  1  0.65956221  0.24321363  0.60079645  1
  C  C92  1  0.73774796  0.23413904  0.66680681  1
  C  C93  1  0.70742457  0.21804106  0.76503445  1
  C  C94  1  0.87562036  0.24968755  0.56354222  1
  C  C95  1  0.80327642  0.26087946  0.48961046  1
  C  C96  1  0.83790882  0.27691015  0.39885743  1
  C  C97  1  0.69514787  0.79585549  0.23181068  1
  C  C98  1  0.71394938  0.76201165  0.32857701  1
  C  C99  1  0.71859007  0.65101733  0.34973313  1
  C  C100  1  0.73278356  0.61558501  0.43757260  1
  C  C101  1  0.74348959  0.69007173  0.50913428  1
  C  C102  1  0.75608806  0.65941147  0.60119951  1
  C  C103  1  0.76469694  0.73756328  0.66642077  1
  C  C104  1  0.78022097  0.70784878  0.76505543  1
  C  C105  1  0.75054819  0.87448520  0.56141378  1
  C  C106  1  0.73982553  0.80216174  0.48819957  1
  C  C107  1  0.72462543  0.83637058  0.39698457  1
  I  I108  1  0.24489015  -0.00165259  0.99402936  1
  I  I109  1  0.25448069  0.52892603  0.01221480  1
  I  I110  1  0.74608535  0.01482903  0.00211384  1
  I  I111  1  0.75674509  0.51177334  0.99340384  1
  I  I112  1  0.99861135  0.24853956  0.01093412  1
  I  I113  1  0.98803631  0.75111029  0.98683181  1
  I  I114  1  0.47709182  0.25050496  0.00374252  1
  I  I115  1  0.51117024  0.75201291  -0.00209922  1
  I  I116  1  0.96883492  0.00189088  0.78075995  1
  I  I117  1  0.99016525  0.99285587  0.22340606  1
  I  I118  1  0.01124833  0.49775965  0.78287945  1
  I  I119  1  -0.00197937  0.53101560  0.22121145  1
  I  I120  1  0.49194666  0.00065978  0.78080854  1
  I  I121  1  0.50157200  0.02739788  0.22184147  1
  I  I122  1  0.46773631  0.48255611  0.77756843  1
  I  I123  1  0.51348697  0.49970424  0.21257771  1
  N  N124  1  0.30006866  0.20909676  0.81997098  1
  N  N125  1  0.27996585  0.19606466  0.17628332  1
  N  N126  1  0.26303991  0.15560710  0.35130611  1
  N  N127  1  0.20938905  0.69939943  0.82161356  1
  N  N128  1  0.19500913  0.72447138  0.17759436  1
  N  N129  1  0.15590862  0.73758099  0.35278059  1
  N  N130  1  0.79129983  0.20470142  0.17897279  1
  N  N131  1  0.80405348  0.22627631  0.82408535  1
  N  N132  1  0.84470003  0.23687417  0.64880269  1
  N  N133  1  0.79666190  0.78932032  0.17612845  1
  N  N134  1  0.76950313  0.80415800  0.82366916  1
  N  N135  1  0.76259025  0.84404848  0.64706872  1
