# generated using pymatgen
data_H26PbC26(I2N)2
_symmetry_space_group_name_H-M   'P 1'
_cell_length_a   12.33825981
_cell_length_b   12.16863555
_cell_length_c   25.70199466
_cell_angle_alpha   90.81589684
_cell_angle_beta   89.93739540
_cell_angle_gamma   90.28127512
_symmetry_Int_Tables_number   1
_chemical_formula_structural   H26PbC26(I2N)2
_chemical_formula_sum   'H104 Pb4 C104 I16 N8'
_cell_volume   3858.45224038
_cell_formula_units_Z   4
loop_
 _symmetry_equiv_pos_site_id
 _symmetry_equiv_pos_as_xyz
  1  'x, y, z'
loop_
 _atom_site_type_symbol
 _atom_site_label
 _atom_site_symmetry_multiplicity
 _atom_site_fract_x
 _atom_site_fract_y
 _atom_site_fract_z
 _atom_site_occupancy
  H  H0  1  0.18975119  0.29909141  0.88253338  1
  H  H1  1  0.24646533  0.22015927  0.92904264  1
  H  H2  1  0.18460105  0.16191031  0.87846281  1
  H  H3  1  0.38863665  0.29423840  0.87704840  1
  H  H4  1  0.38127733  0.14774924  0.87416153  1
  H  H5  1  0.32738715  0.40577727  0.80161115  1
  H  H6  1  0.30749443  0.41335377  0.70602454  1
  H  H7  1  0.41736326  0.12087187  0.61961341  1
  H  H8  1  0.39590607  0.13252207  0.52438018  1
  H  H9  1  0.26383054  0.08620352  0.45725378  1
  H  H10  1  0.24868540  0.09779987  0.36182523  1
  H  H11  1  0.34164020  0.41706437  0.29482917  1
  H  H12  1  0.32563639  0.42318339  0.19891954  1
  H  H13  1  0.11464789  0.27859552  0.12396696  1
  H  H14  1  0.22323720  0.37389302  0.12111492  1
  H  H15  1  0.34460287  0.20513687  0.11988336  1
  H  H16  1  0.22985335  0.13130538  0.11008225  1
  H  H17  1  0.27011978  0.22673735  0.06763668  1
  H  H18  1  0.10192531  0.15081865  0.20206762  1
  H  H19  1  0.11684490  0.14526161  0.29803221  1
  H  H20  1  0.23178995  0.45120005  0.37435343  1
  H  H21  1  0.24898141  0.43961574  0.46978138  1
  H  H22  1  0.14528329  0.37408277  0.54570480  1
  H  H23  1  0.16776655  0.36318276  0.64116612  1
  H  H24  1  0.31368108  0.05913050  0.69702649  1
  H  H25  1  0.33462096  0.05206802  0.79292154  1
  H  H26  1  0.30881902  0.80124606  0.88960487  1
  H  H27  1  0.21243909  0.76050909  0.93082218  1
  H  H28  1  0.17734746  0.82939533  0.87812302  1
  H  H29  1  0.28250814  0.60807350  0.87837006  1
  H  H30  1  0.13973337  0.62798794  0.87512475  1
  H  H31  1  0.40103867  0.67092659  0.80272513  1
  H  H32  1  0.41192803  0.68919943  0.70717246  1
  H  H33  1  0.12762266  0.57419325  0.62068921  1
  H  H34  1  0.13766319  0.59638534  0.52540549  1
  H  H35  1  0.08934991  0.73269612  0.45859246  1
  H  H36  1  0.10141682  0.75298587  0.36336162  1
  H  H37  1  0.40682768  0.65182754  0.29388707  1
  H  H38  1  0.41573565  0.66846398  0.19810444  1
  H  H39  1  0.28825663  0.89109835  0.12476248  1
  H  H40  1  0.37740499  0.77752780  0.12090416  1
  H  H41  1  0.21602313  0.65757896  0.11463565  1
  H  H42  1  0.13695436  0.77055909  0.11698753  1
  H  H43  1  0.22195640  0.74913454  0.06797598  1
  H  H44  1  0.17180174  0.92077723  0.20493561  1
  H  H45  1  0.16172007  0.90263078  0.30052335  1
  H  H46  1  0.44949708  0.77185494  0.37407630  1
  H  H47  1  0.43758398  0.75173960  0.46939512  1
  H  H48  1  0.37221727  0.85648805  0.54622979  1
  H  H49  1  0.36236689  0.83387856  0.64148135  1
  H  H50  1  0.06310306  0.68590511  0.69806792  1
  H  H51  1  0.05254650  0.66840053  0.79384102  1
  H  H52  1  0.68641115  0.32089465  0.12243672  1
  H  H53  1  0.76824503  0.27587496  0.07374490  1
  H  H54  1  0.82111894  0.33629797  0.12582133  1
  H  H55  1  0.70589725  0.11861392  0.12122329  1
  H  H56  1  0.84934927  0.13744106  0.12346152  1
  H  H57  1  0.59138214  0.17879922  0.19892571  1
  H  H58  1  0.58382874  0.19233840  0.29506822  1
  H  H59  1  0.86815073  0.07383167  0.37787765  1
  H  H60  1  0.85992198  0.09740178  0.47346421  1
  H  H61  1  0.91192903  0.23298440  0.54108055  1
  H  H62  1  0.90032794  0.25242574  0.63692630  1
  H  H63  1  0.58663193  0.16094700  0.70352614  1
  H  H64  1  0.57551013  0.17956174  0.79926313  1
  H  H65  1  0.71052094  0.39566841  0.87665386  1
  H  H66  1  0.62134057  0.28105296  0.87879358  1
  H  H67  1  0.77794283  0.16175576  0.88037313  1
  H  H68  1  0.86310438  0.27193622  0.87743644  1
  H  H69  1  0.78575044  0.25381537  0.92906430  1
  H  H70  1  0.83683623  0.41494478  0.79767570  1
  H  H71  1  0.84810762  0.39672899  0.70175801  1
  H  H72  1  0.55316364  0.27958729  0.62629283  1
  H  H73  1  0.56441590  0.25913105  0.53072959  1
  H  H74  1  0.62972350  0.35941268  0.45614937  1
  H  H75  1  0.63728746  0.33488052  0.36045493  1
  H  H76  1  0.93247489  0.18620463  0.30152626  1
  H  H77  1  0.93925085  0.17108802  0.20498666  1
  H  H78  1  0.68634129  0.68251153  0.12130171  1
  H  H79  1  0.72570690  0.77040827  0.07397577  1
  H  H80  1  0.66641930  0.81962560  0.12721920  1
  H  H81  1  0.88111260  0.70787443  0.12163070  1
  H  H82  1  0.86271455  0.85332562  0.12371923  1
  H  H83  1  0.82055122  0.59421537  0.19852048  1
  H  H84  1  0.80595948  0.58763466  0.29444644  1
  H  H85  1  0.92608334  0.87315542  0.38033590  1
  H  H86  1  0.90388849  0.86098820  0.47587667  1
  H  H87  1  0.76291468  0.91342879  0.54171586  1
  H  H88  1  0.74195550  0.90260797  0.63733100  1
  H  H89  1  0.85385442  0.60528818  0.70606163  1
  H  H90  1  0.83334551  0.59895597  0.80214447  1
  H  H91  1  0.60273833  0.71926867  0.87502623  1
  H  H92  1  0.71106901  0.62499708  0.87711314  1
  H  H93  1  0.83342843  0.79300277  0.87815931  1
  H  H94  1  0.71922520  0.86817961  0.88541045  1
  H  H95  1  0.75450233  0.77696333  0.93029092  1
  H  H96  1  0.56667745  0.82471505  0.79406540  1
  H  H97  1  0.58850961  0.83276139  0.69813119  1
  H  H98  1  0.72986476  0.54896466  0.62561425  1
  H  H99  1  0.75001537  0.55967089  0.53003222  1
  H  H100  1  0.64243798  0.62937632  0.45400454  1
  H  H101  1  0.66461207  0.64186148  0.35847323  1
  H  H102  1  0.81658990  0.94194264  0.30238843  1
  H  H103  1  0.83330128  0.94810558  0.20671292  1
  Pb  Pb104  1  0.02238590  0.99450080  0.98860289  1
  Pb  Pb105  1  0.00718356  0.47787896  0.00066754  1
  Pb  Pb106  1  0.53175230  0.99821740  0.00482530  1
  Pb  Pb107  1  0.51560470  0.50584350  0.00736143  1
  C  C108  1  0.34181678  0.22372589  0.86185937  1
  C  C109  1  0.32975114  0.22824844  0.80383958  1
  C  C110  1  0.32213677  0.32959186  0.77879990  1
  C  C111  1  0.31111278  0.33372295  0.72496846  1
  C  C112  1  0.30794481  0.23666407  0.69460482  1
  C  C113  1  0.29438857  0.24158189  0.63752946  1
  C  C114  1  0.35623382  0.17537752  0.60362152  1
  C  C115  1  0.34414808  0.18194837  0.54989122  1
  C  C116  1  0.26928850  0.25456178  0.52782283  1
  C  C117  1  0.25781029  0.26200907  0.47072684  1
  C  C118  1  0.25751904  0.16658830  0.43920354  1
  C  C119  1  0.24775348  0.17310812  0.38540910  1
  C  C120  1  0.23947066  0.27534297  0.36086641  1
  C  C121  1  0.23040842  0.28068549  0.30358873  1
  C  C122  1  0.28797306  0.35907266  0.27470156  1
  C  C123  1  0.27925092  0.36233891  0.22063468  1
  C  C124  1  0.21193659  0.28753203  0.19394208  1
  C  C125  1  0.19878979  0.29360564  0.13602276  1
  C  C126  1  0.15459849  0.20918669  0.22254558  1
  C  C127  1  0.16381207  0.20552965  0.27637423  1
  C  C128  1  0.23977257  0.37086455  0.39231868  1
  C  C129  1  0.24801923  0.36420385  0.44625522  1
  C  C130  1  0.20642450  0.31972339  0.56178430  1
  C  C131  1  0.21891112  0.31350882  0.61548430  1
  C  C132  1  0.31740867  0.13537152  0.71984991  1
  C  C133  1  0.32780338  0.13127553  0.77377133  1
  C  C134  1  0.21846161  0.66149617  0.86322050  1
  C  C135  1  0.22581146  0.67200690  0.80514295  1
  C  C136  1  0.32666808  0.67753841  0.77999389  1
  C  C137  1  0.33271810  0.68708318  0.72606064  1
  C  C138  1  0.23821712  0.69011183  0.69552618  1
  C  C139  1  0.24449776  0.70214643  0.63831375  1
  C  C140  1  0.18049021  0.63728718  0.60453737  1
  C  C141  1  0.18620881  0.64975699  0.55079086  1
  C  C142  1  0.25606599  0.72774785  0.52849549  1
  C  C143  1  0.26266337  0.74050981  0.47134003  1
  C  C144  1  0.16880155  0.74084479  0.44030916  1
  C  C145  1  0.17545435  0.75336149  0.38656968  1
  C  C146  1  0.27629758  0.76378727  0.36152011  1
  C  C147  1  0.28266508  0.77489180  0.30425692  1
  C  C148  1  0.35474860  0.71068272  0.27445418  1
  C  C149  1  0.35926687  0.71957643  0.22045256  1
  C  C150  1  0.29265019  0.79423040  0.19469451  1
  C  C151  1  0.29968325  0.80576177  0.13659991  1
  C  C152  1  0.22198293  0.86009557  0.22429277  1
  C  C153  1  0.21640181  0.84985178  0.27812929  1
  C  C154  1  0.37022707  0.76269478  0.39244000  1
  C  C155  1  0.36342193  0.75235608  0.44629279  1
  C  C156  1  0.31982122  0.79291447  0.56231715  1
  C  C157  1  0.31424711  0.78023098  0.61603533  1
  C  C158  1  0.13747426  0.68232801  0.72089371  1
  C  C159  1  0.13147207  0.67386607  0.77483838  1
  C  C160  1  0.77148544  0.17026585  0.13725861  1
  C  C161  1  0.76624024  0.17600622  0.19554748  1
  C  C162  1  0.66627612  0.18219955  0.22135461  1
  C  C163  1  0.66214849  0.18958446  0.27537595  1
  C  C164  1  0.75773274  0.19077196  0.30508445  1
  C  C165  1  0.75329169  0.20282647  0.36226249  1
  C  C166  1  0.81701341  0.13783922  0.39487819  1
  C  C167  1  0.81252582  0.15116031  0.44870505  1
  C  C168  1  0.74457192  0.23038840  0.47180244  1
  C  C169  1  0.73891758  0.24403712  0.52887499  1
  C  C170  1  0.83293182  0.24248697  0.55971250  1
  C  C171  1  0.82656404  0.25455506  0.61357992  1
  C  C172  1  0.72583315  0.26673926  0.63855643  1
  C  C173  1  0.71856204  0.27738726  0.69573781  1
  C  C174  1  0.64108215  0.21771336  0.72394511  1
  C  C175  1  0.63457675  0.22818982  0.77787274  1
  C  C176  1  0.70469183  0.29926265  0.80500096  1
  C  C177  1  0.69866513  0.31051845  0.86320013  1
  C  C178  1  0.78181895  0.35924580  0.77701293  1
  C  C179  1  0.78903659  0.34806359  0.72320839  1
  C  C180  1  0.63196585  0.26860645  0.60773587  1
  C  C181  1  0.63847916  0.25825763  0.55385699  1
  C  C182  1  0.68096481  0.29551498  0.43910694  1
  C  C183  1  0.68508472  0.28179984  0.38534871  1
  C  C184  1  0.85758769  0.18292787  0.27907372  1
  C  C185  1  0.86152643  0.17595912  0.22497897  1
  C  C186  1  0.83103208  0.77467337  0.13774234  1
  C  C187  1  0.82612323  0.77158524  0.19603839  1
  C  C188  1  0.81847907  0.67048937  0.22130767  1
  C  C189  1  0.81002184  0.66690324  0.27520059  1
  C  C190  1  0.80929462  0.76419646  0.30535351  1
  C  C191  1  0.79673328  0.75862078  0.36244729  1
  C  C192  1  0.86242720  0.82105008  0.39639600  1
  C  C193  1  0.85006556  0.81409132  0.45012728  1
  C  C194  1  0.77151643  0.74439453  0.47192262  1
  C  C195  1  0.75846051  0.73737747  0.52894739  1
  C  C196  1  0.75623038  0.83329541  0.56005738  1
  C  C197  1  0.74346273  0.82730077  0.61375724  1
  C  C198  1  0.73499641  0.72511297  0.63826374  1
  C  C199  1  0.72287861  0.71984718  0.69541689  1
  C  C200  1  0.79095195  0.65364403  0.72534289  1
  C  C201  1  0.77960948  0.65036724  0.77921767  1
  C  C202  1  0.69878202  0.71148241  0.80445239  1
  C  C203  1  0.68643191  0.70507953  0.86234739  1
  C  C204  1  0.63001594  0.77697595  0.77475439  1
  C  C205  1  0.64267033  0.78187803  0.72101927  1
  C  C206  1  0.73784954  0.62905599  0.60731473  1
  C  C207  1  0.74814811  0.63521794  0.55343655  1
  C  C208  1  0.70574260  0.68194714  0.43795476  1
  C  C209  1  0.71812462  0.68899612  0.38426864  1
  C  C210  1  0.81905124  0.86525718  0.27991596  1
  C  C211  1  0.82710912  0.86883923  0.22584492  1
  I  I212  1  0.26997329  0.01886664  0.97973526  1
  I  I213  1  0.25879133  0.49062927  0.03054991  1
  I  I214  1  0.77424825  0.92564217  0.01092599  1
  I  I215  1  0.76450450  0.54025445  0.97786121  1
  I  I216  1  0.92009280  0.23228466  0.00697432  1
  I  I217  1  0.04504056  0.73735224  0.99183816  1
  I  I218  1  0.48096792  0.25251490  0.00299047  1
  I  I219  1  0.44852901  0.75642533  0.00087140  1
  I  I220  1  0.02216089  0.98529211  0.86305587  1
  I  I221  1  0.05888070  0.00022633  0.11376011  1
  I  I222  1  0.02386355  0.41730363  0.87348512  1
  I  I223  1  0.96954234  0.48676178  0.12272110  1
  I  I224  1  0.57147800  0.00337520  0.87918644  1
  I  I225  1  0.51829436  0.99306706  0.12863628  1
  I  I226  1  0.47606924  0.50339751  0.88638034  1
  I  I227  1  0.56449931  0.49853171  0.13520774  1
  N  N228  1  0.23394098  0.22743953  0.88945081  1
  N  N229  1  0.26580309  0.20879184  0.10682843  1
  N  N230  1  0.23118955  0.77043050  0.89161130  1
  N  N231  1  0.21304752  0.74094947  0.10785056  1
  N  N232  1  0.75959155  0.28222458  0.11381937  1
  N  N233  1  0.78644786  0.24448443  0.88882294  1
  N  N234  1  0.71994468  0.75961872  0.11395402  1
  N  N235  1  0.75408844  0.79037895  0.89051270  1
