# generated using pymatgen
data_H14PbC10S2(I2N)2
_symmetry_space_group_name_H-M   'P 1'
_cell_length_a   12.37676007
_cell_length_b   12.32344201
_cell_length_c   15.80041766
_cell_angle_alpha   86.30343245
_cell_angle_beta   86.37069894
_cell_angle_gamma   90.50493610
_symmetry_Int_Tables_number   1
_chemical_formula_structural   H14PbC10S2(I2N)2
_chemical_formula_sum   'H56 Pb4 C40 S8 I16 N8'
_cell_volume   2399.90918416
_cell_formula_units_Z   4
loop_
 _symmetry_equiv_pos_site_id
 _symmetry_equiv_pos_as_xyz
  1  'x, y, z'
loop_
 _atom_site_type_symbol
 _atom_site_label
 _atom_site_symmetry_multiplicity
 _atom_site_fract_x
 _atom_site_fract_y
 _atom_site_fract_z
 _atom_site_occupancy
  H  H0  1  0.33809858  0.28013486  0.85138226  1
  H  H1  1  0.32179310  0.16060629  0.80938260  1
  H  H2  1  0.25356327  0.18652675  0.89953610  1
  H  H3  1  0.16677072  0.34609019  0.82041413  1
  H  H4  1  0.12149950  0.21159956  0.80377335  1
  H  H5  1  0.24691273  0.46518729  0.68634033  1
  H  H6  1  0.29271778  0.44695311  0.52287024  1
  H  H7  1  0.30227771  0.05597853  0.48981047  1
  H  H8  1  0.33448950  0.03518808  0.32519455  1
  H  H9  1  0.37171429  0.15774287  0.18591628  1
  H  H10  1  0.37706526  0.30137692  0.19383371  1
  H  H11  1  0.24385059  0.25602680  0.10174008  1
  H  H12  1  0.17871422  0.16949656  0.17307165  1
  H  H13  1  0.17626707  0.30352760  0.18654997  1
  H  H14  1  0.27585298  0.66144784  0.85882761  1
  H  H15  1  0.15829081  0.68287736  0.81499365  1
  H  H16  1  0.19098021  0.75293723  0.89662801  1
  H  H17  1  0.35465729  0.82938768  0.80729285  1
  H  H18  1  0.22480045  0.88121664  0.78611023  1
  H  H19  1  0.46600573  0.74548859  0.68127477  1
  H  H20  1  0.44361140  0.70114147  0.52243247  1
  H  H21  1  0.05376570  0.70232128  0.49100909  1
  H  H22  1  0.03149075  0.66543757  0.33056308  1
  H  H23  1  0.15271998  0.62341350  0.19416323  1
  H  H24  1  0.29524361  0.61302624  0.20348852  1
  H  H25  1  0.26018698  0.75496493  0.10076237  1
  H  H26  1  0.17471695  0.81759533  0.16696071  1
  H  H27  1  0.30707395  0.81281426  0.18310361  1
  H  H28  1  0.70805915  0.15432944  0.16782830  1
  H  H29  1  0.83516236  0.17908995  0.19255976  1
  H  H30  1  0.79414768  0.23358270  0.10155294  1
  H  H31  1  0.65438129  0.33918107  0.18061400  1
  H  H32  1  0.79162863  0.37705444  0.19345375  1
  H  H33  1  0.53618581  0.25889295  0.31452445  1
  H  H34  1  0.55494287  0.20787724  0.47716127  1
  H  H35  1  0.94498271  0.20630263  0.51141835  1
  H  H36  1  0.96448200  0.17839134  0.67659003  1
  H  H37  1  0.84147401  0.14593972  0.81708918  1
  H  H38  1  0.69886520  0.13139289  0.80817784  1
  H  H39  1  0.73846932  0.27973823  0.89112076  1
  H  H40  1  0.81927077  0.34156197  0.81388680  1
  H  H41  1  0.68588775  0.33300406  0.80348058  1
  H  H42  1  0.83070117  0.72812293  0.14616837  1
  H  H43  1  0.81149749  0.84652935  0.19093667  1
  H  H44  1  0.74605210  0.81867430  0.10584633  1
  H  H45  1  0.65853700  0.65627004  0.19156261  1
  H  H46  1  0.61362900  0.78864913  0.21578953  1
  H  H47  1  0.74235210  0.53580255  0.31543525  1
  H  H48  1  0.79698519  0.55327504  0.47236188  1
  H  H49  1  0.80539498  0.94401294  0.51000724  1
  H  H50  1  0.83296501  0.96219097  0.67239066  1
  H  H51  1  0.85892174  0.83836955  0.81006678  1
  H  H52  1  0.87106131  0.69563397  0.79984255  1
  H  H53  1  0.72322180  0.73215692  0.89632510  1
  H  H54  1  0.66344701  0.81369915  0.82502817  1
  H  H55  1  0.67270831  0.67853392  0.81225036  1
  Pb  Pb56  1  0.00677848  0.99834403  0.00663438  1
  Pb  Pb57  1  0.00794167  0.48954794  0.00243401  1
  Pb  Pb58  1  0.51520899  0.00263548  0.99643503  1
  Pb  Pb59  1  0.51395454  0.50837942  0.00326567  1
  C  C60  1  0.18916824  0.27002363  0.79171046  1
  C  C61  1  0.21935581  0.29045727  0.69958654  1
  C  C62  1  0.24582849  0.38856635  0.65566299  1
  C  C63  1  0.26927730  0.37871246  0.56773648  1
  C  C64  1  0.26106141  0.27239774  0.54428153  1
  C  C65  1  0.28014257  0.22987400  0.46144258  1
  C  C66  1  0.29864135  0.12303059  0.44167738  1
  C  C67  1  0.31517278  0.11157638  0.35340966  1
  C  C68  1  0.30943954  0.20895347  0.30542525  1
  C  C69  1  0.32870015  0.22714019  0.21178388  1
  C  C70  1  0.27716016  0.80992761  0.78142782  1
  C  C71  1  0.29375486  0.77779861  0.69264454  1
  C  C72  1  0.38959396  0.74939737  0.65074521  1
  C  C73  1  0.37745092  0.72610196  0.56539868  1
  C  C74  1  0.27159153  0.73626501  0.54187630  1
  C  C75  1  0.22806602  0.71629163  0.46136525  1
  C  C76  1  0.12092506  0.70106459  0.44307309  1
  C  C77  1  0.10879128  0.68141544  0.35699416  1
  C  C78  1  0.20613762  0.68111979  0.30923992  1
  C  C79  1  0.22381706  0.66303423  0.21755947  1
  C  C80  1  0.72957250  0.31334352  0.20874677  1
  C  C81  1  0.70976112  0.28794744  0.30161456  1
  C  C82  1  0.61234612  0.25996153  0.34521995  1
  C  C83  1  0.62258714  0.23296069  0.43254034  1
  C  C84  1  0.72865622  0.24000992  0.45557240  1
  C  C85  1  0.77065554  0.22050510  0.53829544  1
  C  C86  1  0.87733925  0.20678291  0.55896921  1
  C  C87  1  0.88796868  0.19218612  0.64745013  1
  C  C88  1  0.78983870  0.19365734  0.69423816  1
  C  C89  1  0.77073261  0.18196753  0.78796909  1
  C  C90  1  0.68124304  0.73178475  0.21950215  1
  C  C91  1  0.71340430  0.70979470  0.30776961  1
  C  C92  1  0.74266410  0.61194697  0.34681316  1
  C  C93  1  0.77134007  0.62139942  0.43130933  1
  C  C94  1  0.76434136  0.72710878  0.45670128  1
  C  C95  1  0.78562428  0.76866306  0.53765361  1
  C  C96  1  0.80268990  0.87551330  0.55729952  1
  C  C97  1  0.81723885  0.88549996  0.64448867  1
  C  C98  1  0.81165156  0.78689063  0.69144652  1
  C  C99  1  0.82192261  0.76729324  0.78425038  1
  S  S100  1  0.28345130  0.31540858  0.36980973  1
  S  S101  1  0.22148376  0.18544796  0.63168830  1
  S  S102  1  0.31357298  0.70513696  0.37098940  1
  S  S103  1  0.18809149  0.77788557  0.62574574  1
  S  S104  1  0.68390644  0.21294709  0.62887082  1
  S  S105  1  0.81495398  0.28230053  0.36885933  1
  S  S106  1  0.78875707  0.68110938  0.62774782  1
  S  S107  1  0.71947960  0.81382994  0.37592986  1
  I  I108  1  0.25632938  0.02980542  0.02851892  1
  I  I109  1  0.26047005  0.46164973  0.97808262  1
  I  I110  1  0.76080982  0.94972241  0.97097796  1
  I  I111  1  0.75962725  0.56057370  0.02218316  1
  I  I112  1  0.94460735  0.24677530  0.97637056  1
  I  I113  1  0.03711483  0.74323430  0.03050678  1
  I  I114  1  0.52538612  0.25509074  0.98969887  1
  I  I115  1  0.44509464  0.75380026  0.98996375  1
  I  I116  1  0.04376938  0.99527294  0.80681809  1
  I  I117  1  0.97497136  0.00237407  0.21279836  1
  I  I118  1  0.00974709  0.52517814  0.79801598  1
  I  I119  1  0.01928312  0.42754045  0.20372393  1
  I  I120  1  0.50136856  0.01875372  0.79389990  1
  I  I121  1  0.55681356  0.00840660  0.19695940  1
  I  I122  1  0.56388792  0.51048428  0.79197615  1
  I  I123  1  0.48069004  0.49955453  0.20224875  1
  N  N124  1  0.28133546  0.22164311  0.84051410  1
  N  N125  1  0.22533209  0.23986674  0.16601431  1
  N  N126  1  0.22261345  0.72154727  0.84103538  1
  N  N127  1  0.24253228  0.76932745  0.16415088  1
  N  N128  1  0.76895453  0.21422104  0.16473920  1
  N  N129  1  0.75233079  0.29089613  0.82589573  1
  N  N130  1  0.77293268  0.78423913  0.16263107  1
  N  N131  1  0.71299635  0.74716242  0.83207920  1
