# generated using pymatgen
data_H18PbC18S4(I2N)2
_symmetry_space_group_name_H-M   'P 1'
_cell_length_a   12.08013558
_cell_length_b   12.20712145
_cell_length_c   23.90437868
_cell_angle_alpha   93.79521280
_cell_angle_beta   91.77736130
_cell_angle_gamma   90.60947316
_symmetry_Int_Tables_number   1
_chemical_formula_structural   H18PbC18S4(I2N)2
_chemical_formula_sum   'H72 Pb4 C72 S16 I16 N8'
_cell_volume   3515.32052311
_cell_formula_units_Z   4
loop_
 _symmetry_equiv_pos_site_id
 _symmetry_equiv_pos_as_xyz
  1  'x, y, z'
loop_
 _atom_site_type_symbol
 _atom_site_label
 _atom_site_symmetry_multiplicity
 _atom_site_fract_x
 _atom_site_fract_y
 _atom_site_fract_z
 _atom_site_occupancy
  H  H0  1  0.26107586  0.28751174  0.92082062  1
  H  H1  1  0.31790116  0.18593796  0.88153799  1
  H  H2  1  0.32315755  0.31589081  0.86178708  1
  H  H3  1  0.11528224  0.31155658  0.85792681  1
  H  H4  1  0.12368179  0.16783769  0.86710142  1
  H  H5  1  0.13954433  0.03834867  0.77756905  1
  H  H6  1  0.16867981  0.04686685  0.66949045  1
  H  H7  1  0.21846512  0.43834258  0.63979320  1
  H  H8  1  0.26626553  0.44592556  0.53414472  1
  H  H9  1  0.33753384  0.06501303  0.46828743  1
  H  H10  1  0.36811425  0.06969510  0.36042992  1
  H  H11  1  0.34295604  0.45565844  0.32150129  1
  H  H12  1  0.34262139  0.46224065  0.21184873  1
  H  H13  1  0.35611544  0.33482675  0.12340020  1
  H  H14  1  0.38663887  0.19425662  0.13197933  1
  H  H15  1  0.22768804  0.19740745  0.07578661  1
  H  H16  1  0.18009910  0.16315983  0.13730770  1
  H  H17  1  0.16493256  0.29108733  0.11734545  1
  H  H18  1  0.26852700  0.73652771  0.92137359  1
  H  H19  1  0.18964072  0.66723980  0.87149891  1
  H  H20  1  0.32583073  0.68667121  0.86280324  1
  H  H21  1  0.30202774  0.88546481  0.86425155  1
  H  H22  1  0.15723885  0.86484638  0.87325267  1
  H  H23  1  0.03197088  0.83891587  0.78481347  1
  H  H24  1  0.04516742  0.81367655  0.67507665  1
  H  H25  1  0.44113213  0.78123083  0.63867167  1
  H  H26  1  0.44839381  0.73237405  0.53046977  1
  H  H27  1  0.06329034  0.65796276  0.46667489  1
  H  H28  1  0.07030984  0.63120391  0.35715545  1
  H  H29  1  0.46270734  0.67793168  0.31733322  1
  H  H30  1  0.47313048  0.67867192  0.20789669  1
  H  H31  1  0.34666325  0.64948885  0.11904907  1
  H  H32  1  0.20381116  0.61777666  0.12736263  1
  H  H33  1  0.21391856  0.77932985  0.08022191  1
  H  H34  1  0.17483170  0.81848877  0.14442268  1
  H  H35  1  0.30651993  0.84163125  0.12702509  1
  H  H36  1  0.74335804  0.23416576  0.07796925  1
  H  H37  1  0.83360865  0.17671115  0.12259628  1
  H  H38  1  0.69766938  0.17754969  0.13451398  1
  H  H39  1  0.69976586  0.37921400  0.14313047  1
  H  H40  1  0.84530404  0.37551159  0.13484147  1
  H  H41  1  0.97093131  0.36063025  0.22319411  1
  H  H42  1  0.95629901  0.33254698  0.33105383  1
  H  H43  1  0.56163176  0.27866590  0.36356584  1
  H  H44  1  0.55318817  0.23044167  0.46811690  1
  H  H45  1  0.93966222  0.17048703  0.52923942  1
  H  H46  1  0.93322474  0.14297266  0.63670179  1
  H  H47  1  0.53968521  0.16144491  0.67893166  1
  H  H48  1  0.52823137  0.16561187  0.78870040  1
  H  H49  1  0.65443357  0.15152992  0.87640266  1
  H  H50  1  0.79697592  0.12390822  0.86686093  1
  H  H51  1  0.77938586  0.28587288  0.92454155  1
  H  H52  1  0.82798833  0.32414399  0.86434375  1
  H  H53  1  0.69461434  0.34526072  0.87866395  1
  H  H54  1  0.75647130  0.73642264  0.07612952  1
  H  H55  1  0.82054288  0.82099045  0.12423184  1
  H  H56  1  0.81956201  0.68542633  0.13199684  1
  H  H57  1  0.61559164  0.68960686  0.13744524  1
  H  H58  1  0.62092486  0.83388407  0.13032017  1
  H  H59  1  0.64031734  0.96088089  0.22015483  1
  H  H60  1  0.66967960  0.94974825  0.32914757  1
  H  H61  1  0.72137764  0.55961131  0.35842870  1
  H  H62  1  0.76782407  0.55288261  0.46573349  1
  H  H63  1  0.83496580  0.93634478  0.53555485  1
  H  H64  1  0.85799247  0.93144443  0.64448174  1
  H  H65  1  0.84406888  0.54399600  0.67985595  1
  H  H66  1  0.84061989  0.53373970  0.78933607  1
  H  H67  1  0.85356330  0.66049549  0.87846873  1
  H  H68  1  0.87146729  0.80393921  0.87179564  1
  H  H69  1  0.71640139  0.77660178  0.92495869  1
  H  H70  1  0.66469047  0.81656256  0.86451518  1
  H  H71  1  0.65752401  0.68335488  0.87835301  1
  Pb  Pb72  1  0.98861725  0.00872395  0.00677686  1
  Pb  Pb73  1  0.00793820  0.52031629  0.00113577  1
  Pb  Pb74  1  0.48964764  -0.00302723  0.99885972  1
  Pb  Pb75  1  0.49607888  0.48982558  0.99114807  1
  C  C76  1  0.16377048  0.23727706  0.84840492  1
  C  C77  1  0.17515508  0.21323088  0.78722955  1
  C  C78  1  0.16150284  0.11281780  0.75759100  1
  C  C79  1  0.17623399  0.11801535  0.69942046  1
  C  C80  1  0.20159080  0.22324142  0.68425059  1
  C  C81  1  0.22450303  0.25951868  0.62947423  1
  C  C82  1  0.23162558  0.36562224  0.61197147  1
  C  C83  1  0.25690219  0.36971750  0.55496042  1
  C  C84  1  0.26988104  0.26665474  0.52769618  1
  C  C85  1  0.29465893  0.23850739  0.47000285  1
  C  C86  1  0.32574240  0.13788727  0.44490251  1
  C  C87  1  0.34197234  0.14031159  0.38681617  1
  C  C88  1  0.32358262  0.24268483  0.36635013  1
  C  C89  1  0.32971189  0.27694706  0.30983985  1
  C  C90  1  0.33650196  0.38315092  0.29250636  1
  C  C91  1  0.33533697  0.38709246  0.23361734  1
  C  C92  1  0.32839651  0.28470833  0.20546554  1
  C  C93  1  0.33019993  0.26123090  0.14380038  1
  C  C94  1  0.23070239  0.83105635  0.85274489  1
  C  C95  1  0.20972707  0.81798547  0.79115659  1
  C  C96  1  0.10856727  0.82330370  0.76308206  1
  C  C97  1  0.11595453  0.81059017  0.70425631  1
  C  C98  1  0.22357790  0.79369077  0.68703977  1
  C  C99  1  0.26081562  0.77260180  0.63077641  1
  C  C100  1  0.36787844  0.76706733  0.61131295  1
  C  C101  1  0.37173120  0.74117686  0.55309423  1
  C  C102  1  0.26750108  0.72661790  0.52710740  1
  C  C103  1  0.23913615  0.70224464  0.46874989  1
  C  C104  1  0.13773150  0.67067041  0.44320160  1
  C  C105  1  0.14143120  0.65651390  0.38426052  1
  C  C106  1  0.24549094  0.67745928  0.36388142  1
  C  C107  1  0.28214429  0.67577526  0.30708827  1
  C  C108  1  0.39032836  0.67846789  0.28902849  1
  C  C109  1  0.39622202  0.67937168  0.23026312  1
  C  C110  1  0.29379303  0.67611576  0.20295934  1
  C  C111  1  0.27198977  0.67418425  0.14143067  1
  C  C112  1  0.77523678  0.33331204  0.15268966  1
  C  C113  1  0.79530723  0.32361268  0.21366789  1
  C  C114  1  0.89493385  0.33810006  0.24319212  1
  C  C115  1  0.88655687  0.32390998  0.30104555  1
  C  C116  1  0.77983397  0.29792532  0.31635255  1
  C  C117  1  0.74212819  0.27465381  0.37113599  1
  C  C118  1  0.63493083  0.26626996  0.39002755  1
  C  C119  1  0.63048545  0.24076440  0.44662934  1
  C  C120  1  0.73431701  0.22892597  0.47225957  1
  C  C121  1  0.76240939  0.20495639  0.52924561  1
  C  C122  1  0.86454071  0.17884047  0.55316968  1
  C  C123  1  0.86109560  0.16379656  0.61114078  1
  C  C124  1  0.75625106  0.17762499  0.63269755  1
  C  C125  1  0.71973807  0.17224619  0.68942721  1
  C  C126  1  0.61170289  0.16748948  0.70757693  1
  C  C127  1  0.60515958  0.17051115  0.76644730  1
  C  C128  1  0.70731065  0.17665751  0.79403154  1
  C  C129  1  0.72873171  0.17798690  0.85548104  1
  C  C130  1  0.66400427  0.76525971  0.14858720  1
  C  C131  1  0.67927183  0.78788067  0.21015754  1
  C  C132  1  0.66461531  0.88690830  0.24023886  1
  C  C133  1  0.67924159  0.88029298  0.29872165  1
  C  C134  1  0.70573006  0.77548504  0.31384934  1
  C  C135  1  0.72814771  0.73876068  0.36918442  1
  C  C136  1  0.73470344  0.63259978  0.38672852  1
  C  C137  1  0.75941543  0.62895315  0.44462218  1
  C  C138  1  0.77219856  0.73232516  0.47243481  1
  C  C139  1  0.79461712  0.76093875  0.53115466  1
  C  C140  1  0.82299532  0.86241696  0.55794122  1
  C  C141  1  0.83542392  0.85981539  0.61671552  1
  C  C142  1  0.81688794  0.75640778  0.63592505  1
  C  C143  1  0.82001496  0.72078218  0.69232631  1
  C  C144  1  0.83163436  0.61463074  0.70914532  1
  C  C145  1  0.82911452  0.60877174  0.76780514  1
  C  C146  1  0.81643888  0.70954898  0.79644261  1
  C  C147  1  0.81978179  0.73169431  0.85830470  1
  S  S148  1  0.32431923  0.18201335  0.25230060  1
  S  S149  1  0.28482561  0.33590337  0.42020452  1
  S  S150  1  0.24979952  0.16457212  0.57399982  1
  S  S151  1  0.20534419  0.31547193  0.74283919  1
  S  S152  1  0.18837087  0.67224917  0.25050238  1
  S  S153  1  0.33865794  0.71519635  0.41871264  1
  S  S154  1  0.16468513  0.74570889  0.57584885  1
  S  S155  1  0.31551328  0.79724604  0.74442523  1
  S  S156  1  0.81307295  0.17742787  0.74649010  1
  S  S157  1  0.66230331  0.21082269  0.58002626  1
  S  S158  1  0.83753665  0.25024665  0.42482833  1
  S  S159  1  0.68965197  0.29359938  0.25802204  1
  S  S160  1  0.80578534  0.81293758  0.75016912  1
  S  S161  1  0.78282746  0.66258747  0.58004454  1
  S  S162  1  0.75313578  0.83400248  0.42560408  1
  S  S163  1  0.71167992  0.68542904  0.25463172  1
  I  I164  1  0.24332207  0.07185451  0.98466311  1
  I  I165  1  0.24886469  0.41579292  0.01129371  1
  I  I166  1  0.74315303  0.92174937  0.01107963  1
  I  I167  1  0.75188183  0.55505735  0.98108339  1
  I  I168  1  0.93929631  0.26423187  0.00768521  1
  I  I169  1  0.08537893  0.76659462  0.99605948  1
  I  I170  1  0.58415177  0.23991749  0.99600730  1
  I  I171  1  0.43719047  0.74030841  0.00308103  1
  I  I172  1  0.96787745  0.00213999  0.87582506  1
  I  I173  1  0.00030747  0.02438209  0.14555285  1
  I  I174  1  0.04359758  0.51338218  0.86772862  1
  I  I175  1  0.98357047  0.56178141  0.13551337  1
  I  I176  1  0.50937391  0.96153430  0.86525711  1
  I  I177  1  0.45382980  0.99096859  0.13341192  1
  I  I178  1  0.48660450  0.48198846  0.85281708  1
  I  I179  1  0.52692928  0.49211644  0.12123543  1
  N  N180  1  0.27411148  0.25768922  0.87954146  1
  N  N181  1  0.21850768  0.22611902  0.11756597  1
  N  N182  1  0.25546949  0.72354720  0.87824701  1
  N  N183  1  0.24005807  0.78553516  0.12244446  1
  N  N184  1  0.76185259  0.22283459  0.12007034  1
  N  N185  1  0.75959298  0.29110401  0.88206978  1
  N  N186  1  0.77184907  0.75082425  0.11889210  1
  N  N187  1  0.70733621  0.75292578  0.88238048  1
