# generated using pymatgen
data_H18PbC14(I2N)2
_symmetry_space_group_name_H-M   'P 1'
_cell_length_a   12.34698442
_cell_length_b   12.34724484
_cell_length_c   17.07953867
_cell_angle_alpha   90.00873051
_cell_angle_beta   89.99708007
_cell_angle_gamma   90.00026174
_symmetry_Int_Tables_number   1
_chemical_formula_structural   H18PbC14(I2N)2
_chemical_formula_sum   'H72 Pb4 C56 I16 N8'
_cell_volume   2603.79680954
_cell_formula_units_Z   4
loop_
 _symmetry_equiv_pos_site_id
 _symmetry_equiv_pos_as_xyz
  1  'x, y, z'
loop_
 _atom_site_type_symbol
 _atom_site_label
 _atom_site_symmetry_multiplicity
 _atom_site_fract_x
 _atom_site_fract_y
 _atom_site_fract_z
 _atom_site_occupancy
  H  H0  1  0.25478817  0.30218653  0.89732703  1
  H  H1  1  0.16561767  0.24314675  0.83900093  1
  H  H2  1  0.20456099  0.36889386  0.81976160  1
  H  H3  1  0.34037313  0.16778936  0.81450978  1
  H  H4  1  0.39454898  0.30077898  0.80607704  1
  H  H5  1  0.23238953  0.08826593  0.70543030  1
  H  H6  1  0.19692470  0.08719347  0.56259576  1
  H  H7  1  0.16962255  0.40760309  0.45664214  1
  H  H8  1  0.13065575  0.40686016  0.31409968  1
  H  H9  1  0.15652582  0.16332974  0.18745454  1
  H  H10  1  0.09832079  0.29423743  0.19631301  1
  H  H11  1  0.23055432  0.29667176  0.10119126  1
  H  H12  1  0.28157972  0.37026172  0.17578123  1
  H  H13  1  0.32788669  0.24617900  0.15802933  1
  H  H14  1  0.26504553  0.08602683  0.29556844  1
  H  H15  1  0.30332559  0.08611417  0.43793789  1
  H  H16  1  0.33146272  0.40831969  0.54368651  1
  H  H17  1  0.36797190  0.40863985  0.68660145  1
  H  H18  1  0.30214663  0.74517249  0.89731085  1
  H  H19  1  0.24317915  0.83436014  0.83898622  1
  H  H20  1  0.36891293  0.79535978  0.81974534  1
  H  H21  1  0.16775120  0.65962512  0.81450915  1
  H  H22  1  0.30072972  0.60541163  0.80604928  1
  H  H23  1  0.08824093  0.76759706  0.70543792  1
  H  H24  1  0.08719152  0.80307326  0.56260227  1
  H  H25  1  0.40761732  0.83037174  0.45662530  1
  H  H26  1  0.40686113  0.86935298  0.31408188  1
  H  H27  1  0.16331885  0.84345819  0.18747310  1
  H  H28  1  0.29423127  0.90166006  0.19630994  1
  H  H29  1  0.29665938  0.76939676  0.10119576  1
  H  H30  1  0.37021919  0.71833056  0.17579114  1
  H  H31  1  0.24612878  0.67209351  0.15803377  1
  H  H32  1  0.08602963  0.73494406  0.29558847  1
  H  H33  1  0.08612364  0.69666081  0.43795575  1
  H  H34  1  0.40833055  0.66854089  0.54366923  1
  H  H35  1  0.40863084  0.63202352  0.68658027  1
  H  H36  1  0.70321843  0.23038979  0.10117703  1
  H  H37  1  0.75369010  0.32777920  0.15796532  1
  H  H38  1  0.62964876  0.28144913  0.17577173  1
  H  H39  1  0.83664544  0.15648141  0.18744011  1
  H  H40  1  0.70575702  0.09822738  0.19631574  1
  H  H41  1  0.91396557  0.26501708  0.29556476  1
  H  H42  1  0.91388660  0.30332777  0.43793646  1
  H  H43  1  0.59167649  0.33144414  0.54368324  1
  H  H44  1  0.59136357  0.36792695  0.68660487  1
  H  H45  1  0.83224299  0.34033152  0.81451115  1
  H  H46  1  0.69924634  0.39450718  0.80608276  1
  H  H47  1  0.69786008  0.25479950  0.89733883  1
  H  H48  1  0.63111935  0.20454337  0.81978698  1
  H  H49  1  0.75687070  0.16558998  0.83902477  1
  H  H50  1  0.91174952  0.23234420  0.70542866  1
  H  H51  1  0.91281765  0.19690827  0.56258053  1
  H  H52  1  0.59239340  0.16961006  0.45662784  1
  H  H53  1  0.59312163  0.13062869  0.31408133  1
  H  H54  1  0.76956939  0.70324036  0.10118122  1
  H  H55  1  0.67220382  0.75374605  0.15796554  1
  H  H56  1  0.71846312  0.62970490  0.17577852  1
  H  H57  1  0.84351076  0.83665464  0.18746115  1
  H  H58  1  0.90175604  0.70577086  0.19631372  1
  H  H59  1  0.73497571  0.91395699  0.29558587  1
  H  H60  1  0.69666118  0.91386637  0.43795319  1
  H  H61  1  0.66855484  0.59167134  0.54366468  1
  H  H62  1  0.63206361  0.59137437  0.68658303  1
  H  H63  1  0.65966022  0.83226729  0.81450662  1
  H  H64  1  0.60545742  0.69928776  0.80605580  1
  H  H65  1  0.74517317  0.69790838  0.89732546  1
  H  H66  1  0.79539350  0.63111287  0.81977332  1
  H  H67  1  0.83440065  0.75685025  0.83900708  1
  H  H68  1  0.76763922  0.91175864  0.70543292  1
  H  H69  1  0.80308593  0.91280609  0.56258957  1
  H  H70  1  0.83038776  0.59239017  0.45660685  1
  H  H71  1  0.86938775  0.59313011  0.31406269  1
  Pb  Pb72  1  0.99990235  0.00029722  0.99618590  1
  Pb  Pb73  1  0.99993746  0.50011212  0.99642207  1
  Pb  Pb74  1  0.49966932  0.00006551  0.99642618  1
  Pb  Pb75  1  0.50006077  0.50023978  0.01340907  1
  C  C76  1  0.32476407  0.24939688  0.79175069  1
  C  C77  1  0.30177760  0.24889373  0.70556110  1
  C  C78  1  0.25438330  0.15836309  0.66988837  1
  C  C79  1  0.23491783  0.15769267  0.58953765  1
  C  C80  1  0.26156595  0.24762639  0.54283311  1
  C  C81  1  0.24005990  0.24728573  0.45751179  1
  C  C82  1  0.19233357  0.33766198  0.42117282  1
  C  C83  1  0.17061364  0.33739315  0.34115607  1
  C  C84  1  0.19709097  0.24714147  0.29501823  1
  C  C85  1  0.17058130  0.24569854  0.20934252  1
  C  C86  1  0.24484018  0.15690714  0.33083980  1
  C  C87  1  0.26573227  0.15684481  0.41101058  1
  C  C88  1  0.30878965  0.33835101  0.57912493  1
  C  C89  1  0.32912682  0.33869382  0.65931663  1
  C  C90  1  0.24936634  0.67521542  0.79173540  1
  C  C91  1  0.24887322  0.69820602  0.70554783  1
  C  C92  1  0.15834660  0.74560723  0.66988414  1
  C  C93  1  0.15769690  0.76507199  0.58954411  1
  C  C94  1  0.24762661  0.73843231  0.54283095  1
  C  C95  1  0.24730240  0.75993474  0.45750653  1
  C  C96  1  0.33766588  0.80765559  0.42115995  1
  C  C97  1  0.33740804  0.82938198  0.34114539  1
  C  C98  1  0.24713601  0.80290048  0.29502218  1
  C  C99  1  0.24569121  0.82939792  0.20934896  1
  C  C100  1  0.15691702  0.75515274  0.33085251  1
  C  C101  1  0.15684720  0.73425533  0.41102075  1
  C  C102  1  0.33836380  0.69120718  0.57911080  1
  C  C103  1  0.33867904  0.67086845  0.65930054  1
  C  C104  1  0.75427133  0.17052558  0.20933610  1
  C  C105  1  0.75283846  0.19707004  0.29500954  1
  C  C106  1  0.84307105  0.24483310  0.33083068  1
  C  C107  1  0.84313877  0.26573140  0.41100241  1
  C  C108  1  0.75271692  0.24005831  0.45749460  1
  C  C109  1  0.75237624  0.26155367  0.54283011  1
  C  C110  1  0.66165496  0.30876370  0.57912208  1
  C  C111  1  0.66130046  0.32908820  0.65932240  1
  C  C112  1  0.75111886  0.30172201  0.70556421  1
  C  C113  1  0.75061623  0.32471377  0.79175351  1
  C  C114  1  0.84163449  0.25434633  0.66988112  1
  C  C115  1  0.84231348  0.23489734  0.58953090  1
  C  C116  1  0.66233485  0.19232464  0.42115630  1
  C  C117  1  0.66259587  0.17059821  0.34114168  1
  C  C118  1  0.82947329  0.75428471  0.20933992  1
  C  C119  1  0.80292827  0.75284542  0.29500934  1
  C  C120  1  0.75516105  0.84306382  0.33084362  1
  C  C121  1  0.73425659  0.84314222  0.41101149  1
  C  C122  1  0.75994019  0.75269548  0.45749614  1
  C  C123  1  0.73844318  0.75236632  0.54282058  1
  C  C124  1  0.69123134  0.66164286  0.57910596  1
  C  C125  1  0.67090283  0.66131326  0.65930196  1
  C  C126  1  0.69825893  0.75113031  0.70555358  1
  C  C127  1  0.67525944  0.75064954  0.79174154  1
  C  C128  1  0.74564505  0.84164925  0.66988017  1
  C  C129  1  0.76509640  0.84231024  0.58953567  1
  C  C130  1  0.80767080  0.66232899  0.42114909  1
  C  C131  1  0.82940794  0.66258240  0.34112626  1
  I  I132  1  0.25037987  0.92563033  0.00276360  1
  I  I133  1  0.25090603  0.56496438  0.99745406  1
  I  I134  1  0.74931659  0.07386581  0.00276297  1
  I  I135  1  0.74918500  0.43472131  0.99757525  1
  I  I136  1  0.07416980  0.25058997  0.00277388  1
  I  I137  1  0.92596088  0.74951820  0.00274575  1
  I  I138  1  0.43511849  0.25102829  0.99745829  1
  I  I139  1  0.56533516  0.74931073  0.99756160  1
  I  I140  1  0.99998405  0.00010900  0.80592717  1
  I  I141  1  -0.00000709  0.00004206  0.18158757  1
  I  I142  1  0.00001380  0.49996009  0.80700404  1
  I  I143  1  0.00073544  0.50044817  0.18321826  1
  I  I144  1  0.49985078  0.99991173  0.80701620  1
  I  I145  1  0.49937467  0.00086255  0.18324658  1
  I  I146  1  0.50005810  0.50006065  0.82668538  1
  I  I147  1  0.50002934  0.50011007  0.20265518  1
  N  N148  1  0.23174021  0.29429565  0.83912662  1
  N  N149  1  0.25900437  0.29333358  0.15873689  1
  N  N150  1  0.29429433  0.76822043  0.83911153  1
  N  N151  1  0.29330114  0.74095642  0.15874293  1
  N  N152  1  0.70658308  0.25888247  0.15871903  1
  N  N153  1  0.70573670  0.23170967  0.83914665  1
  N  N154  1  0.74108970  0.70660334  0.15872124  1
  N  N155  1  0.76825139  0.70573632  0.83912790  1
