# generated using pymatgen
data_H16PbC14S3(I2N)2
_symmetry_space_group_name_H-M   'P 1'
_cell_length_a   12.15211208
_cell_length_b   12.07576760
_cell_length_c   20.33284512
_cell_angle_alpha   89.59900656
_cell_angle_beta   89.53211292
_cell_angle_gamma   89.88699817
_symmetry_Int_Tables_number   1
_chemical_formula_structural   H16PbC14S3(I2N)2
_chemical_formula_sum   'H64 Pb4 C56 S12 I16 N8'
_cell_volume   2983.58731043
_cell_formula_units_Z   4
loop_
 _symmetry_equiv_pos_site_id
 _symmetry_equiv_pos_as_xyz
  1  'x, y, z'
loop_
 _atom_site_type_symbol
 _atom_site_label
 _atom_site_symmetry_multiplicity
 _atom_site_fract_x
 _atom_site_fract_y
 _atom_site_fract_z
 _atom_site_occupancy
  H  H0  1  0.21875968  0.20631282  0.90243751  1
  H  H1  1  0.16586418  0.30261049  0.85007682  1
  H  H2  1  0.16422883  0.16736842  0.83128093  1
  H  H3  1  0.36568167  0.30653607  0.84850231  1
  H  H4  1  0.36809061  0.16183854  0.83306428  1
  H  H5  1  0.33514243  0.44389407  0.75008118  1
  H  H6  1  0.32111340  0.43879127  0.62130296  1
  H  H7  1  0.31170043  0.04645386  0.56072066  1
  H  H8  1  0.27749938  0.04964833  0.43357180  1
  H  H9  1  0.25221024  0.44529971  0.37782960  1
  H  H10  1  0.21678102  0.45431587  0.25037669  1
  H  H11  1  0.13352361  0.18080518  0.17321663  1
  H  H12  1  0.15569981  0.32352191  0.15518682  1
  H  H13  1  0.33719966  0.15491832  0.16476137  1
  H  H14  1  0.27744902  0.19733356  0.09557932  1
  H  H15  1  0.34791905  0.28767193  0.14082491  1
  H  H16  1  0.19385761  0.77267116  0.90274247  1
  H  H17  1  0.29868613  0.82533625  0.85858581  1
  H  H18  1  0.16917470  0.83298694  0.83019721  1
  H  H19  1  0.30919691  0.63033166  0.84952365  1
  H  H20  1  0.16576977  0.62384590  0.83303307  1
  H  H21  1  0.44532631  0.66436278  0.75033545  1
  H  H22  1  0.43875563  0.68031269  0.62142158  1
  H  H23  1  0.04737655  0.68987836  0.56249230  1
  H  H24  1  0.04922706  0.72361217  0.43507042  1
  H  H25  1  0.44183943  0.74688571  0.37804904  1
  H  H26  1  0.45112357  0.78191853  0.25017601  1
  H  H27  1  0.17921223  0.86589715  0.17244661  1
  H  H28  1  0.32170857  0.84651971  0.15525854  1
  H  H29  1  0.15802419  0.66024304  0.16274168  1
  H  H30  1  0.19979224  0.72463655  0.09438580  1
  H  H31  1  0.29078474  0.65336550  0.13972158  1
  H  H32  1  0.78822008  0.28702800  0.09812248  1
  H  H33  1  0.69568643  0.33804822  0.15219918  1
  H  H34  1  0.83129020  0.34033133  0.16852196  1
  H  H35  1  0.69276895  0.13725470  0.15186004  1
  H  H36  1  0.83729115  0.13612490  0.16593263  1
  H  H37  1  0.55857120  0.16365587  0.25118111  1
  H  H38  1  0.56526421  0.17490443  0.38031810  1
  H  H39  1  0.95516664  0.18909459  0.43994499  1
  H  H40  1  0.95065636  0.22462603  0.56708703  1
  H  H41  1  0.55658626  0.25255569  0.62102870  1
  H  H42  1  0.54565416  0.29460679  0.74760044  1
  H  H43  1  0.81539679  0.37534678  0.82700347  1
  H  H44  1  0.67284991  0.35169080  0.84370388  1
  H  H45  1  0.84175003  0.17165666  0.83218533  1
  H  H46  1  0.79809292  0.22721929  0.90248697  1
  H  H47  1  0.70901657  0.15689528  0.85419872  1
  H  H48  1  0.71652885  0.78712020  0.09728991  1
  H  H49  1  0.66509957  0.69379781  0.15153625  1
  H  H50  1  0.65877837  0.83068950  0.16679473  1
  H  H51  1  0.86485979  0.69529596  0.15202467  1
  H  H52  1  0.86179655  0.84059917  0.16595366  1
  H  H53  1  0.83638534  0.55952639  0.25067762  1
  H  H54  1  0.82613647  0.56575971  0.37988064  1
  H  H55  1  0.80985897  0.95719918  0.44137113  1
  H  H56  1  0.77505778  0.95131803  0.56851412  1
  H  H57  1  0.74863637  0.55358514  0.62165086  1
  H  H58  1  0.70560148  0.54170942  0.74838379  1
  H  H59  1  0.61767037  0.81154617  0.82695572  1
  H  H60  1  0.64706936  0.66966675  0.84536933  1
  H  H61  1  0.82234706  0.84336020  0.83215795  1
  H  H62  1  0.76029543  0.81119119  0.90320609  1
  H  H63  1  0.83306474  0.71509639  0.86339656  1
  Pb  Pb64  1  0.01187872  0.00434163  0.99421037  1
  Pb  Pb65  1  0.01217598  0.48828615  0.99302137  1
  Pb  Pb66  1  0.51482647  0.99988301  0.99448758  1
  Pb  Pb67  1  0.50898243  0.50932871  0.00782048  1
  C  C68  1  0.32379728  0.23931643  0.82243822  1
  C  C69  1  0.31933073  0.26507315  0.75094327  1
  C  C70  1  0.32428165  0.36858212  0.72183252  1
  C  C71  1  0.31707507  0.36541911  0.65268790  1
  C  C72  1  0.30537773  0.25881238  0.62834545  1
  C  C73  1  0.29194249  0.22610364  0.56080085  1
  C  C74  1  0.29523843  0.12169234  0.53257838  1
  C  C75  1  0.27682031  0.12345199  0.46411501  1
  C  C76  1  0.25939809  0.22927535  0.43891235  1
  C  C77  1  0.24092785  0.26513080  0.37207443  1
  C  C78  1  0.23928959  0.37274777  0.34732001  1
  C  C79  1  0.22135534  0.37789006  0.27889808  1
  C  C80  1  0.20895481  0.27506498  0.25071621  1
  C  C81  1  0.19013164  0.25059081  0.18032151  1
  C  C82  1  0.24142111  0.67122228  0.82316780  1
  C  C83  1  0.26732262  0.67912685  0.75180901  1
  C  C84  1  0.37010352  0.67563049  0.72231648  1
  C  C85  1  0.36611295  0.68330205  0.65311280  1
  C  C86  1  0.25968582  0.69374860  0.62905996  1
  C  C87  1  0.22619074  0.70727550  0.56153983  1
  C  C88  1  0.12206052  0.70509022  0.53386747  1
  C  C89  1  0.12296580  0.72322971  0.46520060  1
  C  C90  1  0.22784459  0.73935703  0.43919161  1
  C  C91  1  0.26284898  0.75746121  0.37200717  1
  C  C92  1  0.36986971  0.75929069  0.34726615  1
  C  C93  1  0.37515706  0.77706044  0.27870345  1
  C  C94  1  0.27299785  0.78910850  0.25031337  1
  C  C95  1  0.24944726  0.80969636  0.17976962  1
  C  C96  1  0.75976870  0.17898351  0.17788313  1
  C  C97  1  0.73586787  0.18105517  0.24957158  1
  C  C98  1  0.63352912  0.17444266  0.27927671  1
  C  C99  1  0.63756589  0.17981042  0.34840946  1
  C  C100  1  0.74372124  0.19170442  0.37227000  1
  C  C101  1  0.77623211  0.20515960  0.43979197  1
  C  C102  1  0.87990697  0.20393434  0.46805430  1
  C  C103  1  0.87755011  0.22314197  0.53647716  1
  C  C104  1  0.77203698  0.23942907  0.56150924  1
  C  C105  1  0.73574372  0.26090557  0.62789123  1
  C  C106  1  0.62832137  0.26578043  0.65173884  1
  C  C107  1  0.62208474  0.28775229  0.71971545  1
  C  C108  1  0.72382592  0.30027369  0.74826349  1
  C  C109  1  0.74642751  0.31836025  0.81900500  1
  C  C110  1  0.82057918  0.76185464  0.17779130  1
  C  C111  1  0.81695470  0.73782468  0.24954323  1
  C  C112  1  0.82488594  0.63480478  0.27900185  1
  C  C113  1  0.82004081  0.63858032  0.34818876  1
  C  C114  1  0.80724078  0.74524635  0.37243750  1
  C  C115  1  0.79407342  0.77719084  0.44028530  1
  C  C116  1  0.79523424  0.88107209  0.46912076  1
  C  C117  1  0.77635550  0.87783875  0.53772327  1
  C  C118  1  0.76050630  0.77142252  0.56245813  1
  C  C119  1  0.73937181  0.73397616  0.62892438  1
  C  C120  1  0.73522161  0.62569634  0.65262618  1
  C  C121  1  0.71340077  0.61895097  0.72083515  1
  C  C122  1  0.70036238  0.72128825  0.74977079  1
  C  C123  1  0.67780632  0.74438177  0.82016707  1
  S  S124  1  0.21755665  0.17088473  0.30958757  1
  S  S125  1  0.26429946  0.32632418  0.50145334  1
  S  S126  1  0.30560881  0.16273120  0.69229523  1
  S  S127  1  0.16924302  0.78005864  0.30918876  1
  S  S128  1  0.32516110  0.73343325  0.50126709  1
  S  S129  1  0.16486270  0.69144716  0.69335666  1
  S  S130  1  0.82858526  0.28649208  0.69047063  1
  S  S131  1  0.67590440  0.23126566  0.49906014  1
  S  S132  1  0.83841882  0.19396800  0.30781490  1
  S  S133  1  0.71313693  0.82695987  0.69195491  1
  S  S134  1  0.76843441  0.67547906  0.49935087  1
  S  S135  1  0.80326458  0.84070861  0.30816453  1
  I  I136  1  0.26124288  0.06889237  0.99364768  1
  I  I137  1  0.25640588  0.41132504  0.00485873  1
  I  I138  1  0.76221889  0.92910551  0.00462958  1
  I  I139  1  0.75779146  0.58434801  -0.00111820  1
  I  I140  1  0.91791094  0.24757406  0.00191538  1
  I  I141  1  0.06338057  0.74781657  0.99540088  1
  I  I142  1  0.57745190  0.25086652  0.01005194  1
  I  I143  1  0.40850834  0.75318796  0.99750937  1
  I  I144  1  0.00615986  0.99838461  0.82611524  1
  I  I145  1  0.01428424  0.00239924  0.14776910  1
  I  I146  1  0.02107018  0.45705871  0.83503202  1
  I  I147  1  0.00319582  0.49693346  0.15277646  1
  I  I148  1  0.54767453  0.02123576  0.83702459  1
  I  I149  1  0.50253043  0.98941308  0.15440196  1
  I  I150  1  0.50067668  0.49613368  0.85532578  1
  I  I151  1  0.51245843  0.50594365  0.17003131  1
  N  N152  1  0.21068423  0.22877220  0.85308476  1
  N  N153  1  0.29516933  0.22085744  0.14363012  1
  N  N154  1  0.22541414  0.78336603  0.85490231  1
  N  N155  1  0.22306777  0.70502053  0.14234755  1
  N  N156  1  0.76867462  0.29402326  0.14799356  1
  N  N157  1  0.77560023  0.21162702  0.85400621  1
  N  N158  1  0.70753522  0.76799929  0.14711601  1
  N  N159  1  0.78004689  0.78066065  0.85646934  1
