# generated using pymatgen
data_H18PbC16(I2N)2
_symmetry_space_group_name_H-M   'P 1'
_cell_length_a   12.35833206
_cell_length_b   12.36478263
_cell_length_c   17.19940651
_cell_angle_alpha   86.51276493
_cell_angle_beta   88.18041664
_cell_angle_gamma   91.56544620
_symmetry_Int_Tables_number   1
_chemical_formula_structural   H18PbC16(I2N)2
_chemical_formula_sum   'H72 Pb4 C64 I16 N8'
_cell_volume   2620.89200767
_cell_formula_units_Z   4
loop_
 _symmetry_equiv_pos_site_id
 _symmetry_equiv_pos_as_xyz
  1  'x, y, z'
loop_
 _atom_site_type_symbol
 _atom_site_label
 _atom_site_symmetry_multiplicity
 _atom_site_fract_x
 _atom_site_fract_y
 _atom_site_fract_z
 _atom_site_occupancy
  H  H0  1  0.24085575  0.20409660  0.89915303  1
  H  H1  1  0.16662237  0.18151377  0.82182418  1
  H  H2  1  0.18792445  0.30943244  0.85091449  1
  H  H3  1  0.36461520  0.16965512  0.79933450  1
  H  H4  1  0.37619878  0.30978364  0.81787572  1
  H  H5  1  0.30611984  0.45082602  0.72336993  1
  H  H6  1  0.26621599  0.50074786  0.58626789  1
  H  H7  1  0.22828670  0.44509652  0.45311709  1
  H  H8  1  0.19242158  0.38927036  0.32036377  1
  H  H9  1  0.12275394  0.18860961  0.17812571  1
  H  H10  1  0.12497024  0.32848501  0.19799569  1
  H  H11  1  0.32652295  0.32596331  0.18068337  1
  H  H12  1  0.31091652  0.19960773  0.14833289  1
  H  H13  1  0.25601963  0.30478835  0.10129919  1
  H  H14  1  0.18606419  0.05014526  0.27474735  1
  H  H15  1  0.22274194  0.00026912  0.41247848  1
  H  H16  1  0.25942205  0.05583084  0.54562286  1
  H  H17  1  0.29674088  0.11156227  0.67800131  1
  H  H18  1  0.21963691  0.76543103  0.89742977  1
  H  H19  1  0.18828393  0.83259904  0.81478535  1
  H  H20  1  0.31831854  0.82493950  0.83880459  1
  H  H21  1  0.17580043  0.63427870  0.80805369  1
  H  H22  1  0.31699055  0.63076193  0.82754531  1
  H  H23  1  0.45448202  0.69790182  0.72774545  1
  H  H24  1  0.50151376  0.73678709  0.58801880  1
  H  H25  1  0.44337397  0.77269871  0.45258909  1
  H  H26  1  0.38488002  0.80830353  0.31742757  1
  H  H27  1  0.18107942  0.87175397  0.16945633  1
  H  H28  1  0.32225213  0.87290450  0.18967557  1
  H  H29  1  0.31294750  0.67293543  0.18825865  1
  H  H30  1  0.18451236  0.67887646  0.16002013  1
  H  H31  1  0.28617524  0.73644298  0.10336053  1
  H  H32  1  0.04442929  0.80823156  0.27030480  1
  H  H33  1  0.99721632  0.77195884  0.41031571  1
  H  H34  1  0.05544961  0.73784348  0.54597284  1
  H  H35  1  0.11395970  0.70123078  0.68105048  1
  H  H36  1  0.78089097  0.26603246  0.10112998  1
  H  H37  1  0.80838816  0.33719529  0.17779966  1
  H  H38  1  0.67936437  0.31692879  0.15251081  1
  H  H39  1  0.82485523  0.13938322  0.20190861  1
  H  H40  1  0.68448266  0.12554949  0.18359178  1
  H  H41  1  0.54511749  0.19195112  0.27635083  1
  H  H42  1  0.49802950  0.23197120  0.41228992  1
  H  H43  1  0.55643679  0.27110492  0.54472542  1
  H  H44  1  0.61491372  0.30644997  0.67747748  1
  H  H45  1  0.81787316  0.37399498  0.82113791  1
  H  H46  1  0.67740138  0.36806291  0.80138160  1
  H  H47  1  0.68629653  0.16773688  0.81942098  1
  H  H48  1  0.81397771  0.18252302  0.84877903  1
  H  H49  1  0.71155935  0.23376743  0.89882958  1
  H  H50  1  0.95518911  0.31365960  0.72617513  1
  H  H51  1  0.00225989  0.27805384  0.58934852  1
  H  H52  1  0.94390321  0.24117865  0.45670244  1
  H  H53  1  0.88555118  0.20395373  0.32448223  1
  H  H54  1  0.74549053  0.78413560  0.09861090  1
  H  H55  1  0.66881957  0.81062827  0.17642686  1
  H  H56  1  0.68766121  0.68131334  0.15257249  1
  H  H57  1  0.86580837  0.83072796  0.19465002  1
  H  H58  1  0.87716217  0.69045171  0.17805137  1
  H  H59  1  0.80137483  0.54876807  0.27546692  1
  H  H60  1  0.76307460  0.49902966  0.41521467  1
  H  H61  1  0.72967033  0.55522177  0.54984912  1
  H  H62  1  0.69600632  0.61168862  0.68394454  1
  H  H63  1  0.62237562  0.81132498  0.82565945  1
  H  H64  1  0.63016332  0.67078192  0.80888347  1
  H  H65  1  0.83006885  0.69037469  0.82060502  1
  H  H66  1  0.81142002  0.81824490  0.84789992  1
  H  H67  1  0.75687489  0.71242158  0.90080987  1
  H  H68  1  0.69228797  0.95150188  0.72644153  1
  H  H69  1  0.72729269  1.00103593  0.58617226  1
  H  H70  1  0.75995045  0.94472105  0.45174117  1
  H  H71  1  0.79599417  0.88852505  0.31814211  1
  Pb  Pb72  1  0.00833666  1.00371894  0.98999146  1
  Pb  Pb73  1  0.99520581  0.50663125  0.99588062  1
  Pb  Pb74  1  0.50085121  0.98825621  0.00363304  1
  Pb  Pb75  1  0.49377818  0.49107324  0.00805384  1
  C  C76  1  0.32473997  0.24775270  0.79292275  1
  C  C77  1  0.30143921  0.27687942  0.70931476  1
  C  C78  1  0.29286819  0.38792816  0.68259554  1
  C  C79  1  0.27161566  0.41567904  0.60628496  1
  C  C80  1  0.25713298  0.33441884  0.55165389  1
  C  C81  1  0.23495272  0.36012327  0.47337629  1
  C  C82  1  0.22190691  0.27924841  0.42037226  1
  C  C83  1  0.20045385  0.30440837  0.34046209  1
  C  C84  1  0.18981917  0.22395463  0.28889000  1
  C  C85  1  0.16914488  0.25286870  0.20482162  1
  C  C86  1  0.19809277  0.11297515  0.31572974  1
  C  C87  1  0.21756936  0.08527944  0.39233723  1
  C  C88  1  0.23102068  0.16654596  0.44703133  1
  C  C89  1  0.25281331  0.14081103  0.52535768  1
  C  C90  1  0.26632452  0.22170141  0.57826915  1
  C  C91  1  0.28901894  0.19646149  0.65794516  1
  C  C92  1  0.25418623  0.67779396  0.79833114  1
  C  C93  1  0.28045046  0.69989681  0.71297224  1
  C  C94  1  0.39088272  0.70977257  0.68587732  1
  C  C95  1  0.41693254  0.73061689  0.60828498  1
  C  C96  1  0.33441147  0.74366317  0.55262205  1
  C  C97  1  0.35869299  0.76510472  0.47297344  1
  C  C98  1  0.27663648  0.77647213  0.41888491  1
  C  C99  1  0.30027851  0.79809802  0.33769841  1
  C  C100  1  0.21838254  0.80768642  0.28535637  1
  C  C101  1  0.24486140  0.82768301  0.19985440  1
  C  C102  1  0.10793252  0.79756849  0.31237691  1
  C  C103  1  0.08184323  0.77818076  0.39010581  1
  C  C104  1  0.16438118  0.76627509  0.44587793  1
  C  C105  1  0.14011975  0.74530263  0.52557639  1
  C  C106  1  0.22217280  0.73353990  0.57963616  1
  C  C107  1  0.19856588  0.71104818  0.66075674  1
  C  C108  1  0.74623014  0.17765810  0.20848300  1
  C  C109  1  0.71931581  0.19854065  0.29175629  1
  C  C110  1  0.60876472  0.20553758  0.31749304  1
  C  C111  1  0.58265864  0.22689520  0.39301366  1
  C  C112  1  0.66514374  0.24232226  0.44794345  1
  C  C113  1  0.64102590  0.26465944  0.52544924  1
  C  C114  1  0.72298229  0.27791211  0.57900098  1
  C  C115  1  0.69943612  0.29857755  0.65838565  1
  C  C116  1  0.78109475  0.30887164  0.71051804  1
  C  C117  1  0.75420239  0.32650117  0.79435997  1
  C  C118  1  0.89158803  0.30184367  0.68470976  1
  C  C119  1  0.91767116  0.28293531  0.60874794  1
  C  C120  1  0.83516115  0.26923066  0.55360120  1
  C  C121  1  0.85931298  0.24753724  0.47599244  1
  C  C122  1  0.77734790  0.23366333  0.42257740  1
  C  C123  1  0.80096226  0.21137986  0.34352224  1
  C  C124  1  0.82503388  0.75071377  0.20338584  1
  C  C125  1  0.79889031  0.72262293  0.28813863  1
  C  C126  1  0.78909351  0.61161292  0.31639967  1
  C  C127  1  0.76873524  0.58409845  0.39403117  1
  C  C128  1  0.75609973  0.66568794  0.44861718  1
  C  C129  1  0.73633877  0.64026854  0.52842892  1
  C  C130  1  0.72530582  0.72151557  0.58139027  1
  C  C131  1  0.70482269  0.69667782  0.66267622  1
  C  C132  1  0.69450199  0.77773625  0.71379501  1
  C  C133  1  0.67201556  0.75013668  0.79904704  1
  C  C134  1  0.70353278  0.88866234  0.68534186  1
  C  C135  1  0.72207186  0.91602564  0.60755245  1
  C  C136  1  0.73394226  0.83427352  0.55299269  1
  C  C137  1  0.75340263  0.85967512  0.47318512  1
  C  C138  1  0.76501906  0.77845857  0.42030359  1
  C  C139  1  0.78701005  0.80346100  0.33921625  1
  I  I140  1  0.25905522  0.06989543  0.01986346  1
  I  I141  1  0.23964409  0.43635343  0.98076913  1
  I  I142  1  0.75625422  0.94411654  0.97671528  1
  I  I143  1  0.74195869  0.56228359  0.01784082  1
  I  I144  1  0.93166944  0.25509731  0.98785591  1
  I  I145  1  0.06891423  0.75658491  0.00847487  1
  I  I146  1  0.56585762  0.24204417  0.01162871  1
  I  I147  1  0.43035323  0.73991707  0.99311436  1
  I  I148  1  0.04483727  0.01373026  0.79924525  1
  I  I149  1  0.98692319  0.00915897  0.17098379  1
  I  I150  1  0.97016184  0.55032412  0.80905949  1
  I  I151  1  0.00655870  0.50224231  0.18179566  1
  I  I152  1  0.48372913  0.99497853  0.81856160  1
  I  I153  1  0.53191804  0.95012928  0.19079619  1
  I  I154  1  0.50832560  0.49063713  0.82606171  1
  I  I155  1  0.46374072  0.48324985  0.19935815  1
  N  N156  1  0.22285173  0.23582948  0.84360954  1
  N  N157  1  0.27277585  0.27128707  0.15666518  1
  N  N158  1  0.24505816  0.78181576  0.83946416  1
  N  N159  1  0.25733034  0.72214707  0.16091672  1
  N  N160  1  0.75383176  0.28169153  0.15729286  1
  N  N161  1  0.74104888  0.22031775  0.84274975  1
  N  N162  1  0.72523064  0.75635575  0.15549759  1
  N  N163  1  0.77434322  0.74314112  0.84400923  1
