# generated using pymatgen
data_H22PbC20(I2N)2
_symmetry_space_group_name_H-M   'P 1'
_cell_length_a   12.11673978
_cell_length_b   12.11725192
_cell_length_c   21.36570802
_cell_angle_alpha   92.43387897
_cell_angle_beta   92.43187905
_cell_angle_gamma   88.50221254
_symmetry_Int_Tables_number   1
_chemical_formula_structural   H22PbC20(I2N)2
_chemical_formula_sum   'H88 Pb4 C80 I16 N8'
_cell_volume   3130.36390784
_cell_formula_units_Z   4
loop_
 _symmetry_equiv_pos_site_id
 _symmetry_equiv_pos_as_xyz
  1  'x, y, z'
loop_
 _atom_site_type_symbol
 _atom_site_label
 _atom_site_symmetry_multiplicity
 _atom_site_fract_x
 _atom_site_fract_y
 _atom_site_fract_z
 _atom_site_occupancy
  H  H0  1  0.20016384  0.33532046  0.86347266  1
  H  H1  1  0.18081117  0.23949306  0.91535149  1
  H  H2  1  0.09816677  0.24791919  0.85097325  1
  H  H3  1  0.22715089  0.09184189  0.84524723  1
  H  H4  1  0.33797771  0.18421361  0.85650797  1
  H  H5  1  0.39103089  0.30023986  0.76989660  1
  H  H6  1  0.38719875  0.32536676  0.65527723  1
  H  H7  1  0.24630934  0.05980309  0.54102902  1
  H  H8  1  0.24738688  0.08583934  0.42664625  1
  H  H9  1  0.11032931  0.39478129  0.36522915  1
  H  H10  1  0.11541574  0.42295082  0.25065570  1
  H  H11  1  0.22033060  0.40903007  0.15552700  1
  H  H12  1  0.34231326  0.32449739  0.15108598  1
  H  H13  1  0.11407534  0.23644071  0.14520009  1
  H  H14  1  0.22977063  0.16492834  0.13384143  1
  H  H15  1  0.18939911  0.26189347  0.08359953  1
  H  H16  1  0.39651624  0.19934767  0.23910090  1
  H  H17  1  0.39017127  0.16956041  0.35301836  1
  H  H18  1  0.24611471  0.43896632  0.46062998  1
  H  H19  1  0.24612867  0.41294084  0.57505290  1
  H  H20  1  0.11102323  0.10920782  0.63048038  1
  H  H21  1  0.11482850  0.08413986  0.74554492  1
  H  H22  1  0.33506785  0.77024587  0.86615638  1
  H  H23  1  0.23809592  0.81060685  0.91640089  1
  H  H24  1  0.26354276  0.88593029  0.85480154  1
  H  H25  1  0.09095825  0.77966395  0.84447596  1
  H  H26  1  0.17550159  0.65769058  0.84891300  1
  H  H27  1  0.30064281  0.60347753  0.76089478  1
  H  H28  1  0.33043144  0.60982686  0.64697589  1
  H  H29  1  0.06102791  0.75389360  0.53937616  1
  H  H30  1  0.08704961  0.75388068  0.42495273  1
  H  H31  1  0.39079989  0.88897216  0.36951917  1
  H  H32  1  0.41586320  0.88516426  0.25445177  1
  H  H33  1  0.40815334  0.77284583  0.15474803  1
  H  H34  1  0.31577876  0.66202486  0.14348774  1
  H  H35  1  0.25206727  0.90182597  0.14903133  1
  H  H36  1  0.16466739  0.79983081  0.13652821  1
  H  H37  1  0.26050146  0.81918773  0.08465050  1
  H  H38  1  0.19974638  0.60897305  0.23009982  1
  H  H39  1  0.17462245  0.61281025  0.34472297  1
  H  H40  1  0.44020436  0.75368273  0.45896315  1
  H  H41  1  0.41417352  0.75260372  0.57334751  1
  H  H42  1  0.10522892  0.88967903  0.63477702  1
  H  H43  1  0.07705583  0.88458867  0.74935057  1
  H  H44  1  0.66467282  0.29982718  0.13652738  1
  H  H45  1  0.76050764  0.31918782  0.08465057  1
  H  H46  1  0.75206907  0.40182559  0.14903163  1
  H  H47  1  0.90815942  0.27284957  0.15474910  1
  H  H48  1  0.81578788  0.16202579  0.14348821  1
  H  H49  1  0.69976090  0.10896640  0.23010101  1
  H  H50  1  0.67463511  0.11280540  0.34472306  1
  H  H51  1  0.94020630  0.25369301  0.45896438  1
  H  H52  1  0.91417356  0.25261300  0.57334827  1
  H  H53  1  0.60521845  0.38967015  0.63477699  1
  H  H54  1  0.57704915  0.38457966  0.74935088  1
  H  H55  1  0.59096147  0.27966018  0.84447721  1
  H  H56  1  0.67550853  0.15768954  0.84891421  1
  H  H57  1  0.76354265  0.38593192  0.85480043  1
  H  H58  1  0.83507116  0.27025023  0.86615649  1
  H  H59  1  0.73809851  0.31060988  0.91640105  1
  H  H60  1  0.80065430  0.10348283  0.76089575  1
  H  H61  1  0.83044087  0.10983443  0.64697715  1
  H  H62  1  0.56102922  0.25388556  0.53937604  1
  H  H63  1  0.58705229  0.25387208  0.42495285  1
  H  H64  1  0.89079334  0.38898087  0.36951884  1
  H  H65  1  0.91585571  0.38517256  0.25445224  1
  H  H66  1  0.72976005  0.66492992  0.13384525  1
  H  H67  1  0.68939599  0.76189353  0.08360122  1
  H  H68  1  0.61406920  0.73644889  0.14520204  1
  H  H69  1  0.72033354  0.90903039  0.15552688  1
  H  H70  1  0.84231462  0.82449354  0.15108681  1
  H  H71  1  0.89652563  0.69935492  0.23910007  1
  H  H72  1  0.89017487  0.66956826  0.35301789  1
  H  H73  1  0.74610531  0.93896201  0.46062991  1
  H  H74  1  0.74612078  0.91294184  0.57505287  1
  H  H75  1  0.61103124  0.60919892  0.63048189  1
  H  H76  1  0.61483869  0.58413292  0.74554649  1
  H  H77  1  0.72715436  0.59184772  0.84524998  1
  H  H78  1  0.83798066  0.68422140  0.85651030  1
  H  H79  1  0.59816692  0.74792096  0.85097207  1
  H  H80  1  0.70016091  0.83532707  0.86346834  1
  H  H81  1  0.68081124  0.73950564  0.91535079  1
  H  H82  1  0.89102897  0.80025340  0.76989821  1
  H  H83  1  0.88719181  0.82537932  0.65527830  1
  H  H84  1  0.74631670  0.55980168  0.54103066  1
  H  H85  1  0.74739345  0.58583287  0.42664745  1
  H  H86  1  0.61031918  0.89477155  0.36523093  1
  H  H87  1  0.61541160  0.92294203  0.25065803  1
  Pb  Pb88  1  0.98551219  0.00178075  0.00414397  1
  Pb  Pb89  1  0.99822004  0.51448706  0.99585500  1
  Pb  Pb90  1  0.49822146  0.01449289  0.99585500  1
  Pb  Pb91  1  0.48551722  0.50178991  0.00414453  1
  C  C92  1  0.25542662  0.17374297  0.83442011  1
  C  C93  1  0.25312943  0.19031338  0.76518358  1
  C  C94  1  0.32894773  0.25887563  0.73940022  1
  C  C95  1  0.32612004  0.27381279  0.67505578  1
  C  C96  1  0.24837242  0.21968840  0.63477803  1
  C  C97  1  0.24687434  0.23460063  0.56631715  1
  C  C98  1  0.24600868  0.14320551  0.52354108  1
  C  C99  1  0.24763408  0.15776501  0.45919380  1
  C  C100  1  0.24740015  0.26420988  0.43545002  1
  C  C101  1  0.24964186  0.28002232  0.36719417  1
  C  C102  1  0.17338266  0.35219901  0.33758195  1
  C  C103  1  0.17589468  0.36759586  0.27340813  1
  C  C104  1  0.25580999  0.31256858  0.23739202  1
  C  C105  1  0.25825051  0.32948145  0.16826346  1
  C  C106  1  0.33294442  0.24136456  0.26668300  1
  C  C107  1  0.32901942  0.22448233  0.33061761  1
  C  C108  1  0.24590331  0.35562822  0.47815942  1
  C  C109  1  0.24699898  0.34100940  0.54253589  1
  C  C110  1  0.17279777  0.15077277  0.66103240  1
  C  C111  1  0.17476873  0.13672696  0.72542783  1
  C  C112  1  0.17050783  0.74175912  0.83173781  1
  C  C113  1  0.18745395  0.74415870  0.76260961  1
  C  C114  1  0.25861342  0.66707532  0.73331372  1
  C  C115  1  0.27553152  0.67095830  0.66938629  1
  C  C116  1  0.21995489  0.75038897  0.63280493  1
  C  C117  1  0.23582522  0.75259374  0.56455177  1
  C  C118  1  0.14435420  0.75410091  0.52183677  1
  C  C119  1  0.15900216  0.75300522  0.45746317  1
  C  C120  1  0.26536883  0.75312452  0.43368095  1
  C  C121  1  0.28032084  0.75164350  0.36522184  1
  C  C122  1  0.34921922  0.82718994  0.33896668  1
  C  C123  1  0.36327865  0.82523679  0.27457056  1
  C  C124  1  0.30966863  0.74685621  0.23481267  1
  C  C125  1  0.32625429  0.74457424  0.16557716  1
  C  C126  1  0.24112403  0.67106586  0.26059504  1
  C  C127  1  0.22617055  0.67387445  0.32494195  1
  C  C128  1  0.35681517  0.75398753  0.47646055  1
  C  C129  1  0.34222681  0.75235977  0.54080335  1
  C  C130  1  0.14782593  0.82660275  0.66242164  1
  C  C131  1  0.13239304  0.82413146  0.72658839  1
  C  C132  1  0.82626005  0.24457598  0.16557834  1
  C  C133  1  0.80967409  0.24685835  0.23481328  1
  C  C134  1  0.74113303  0.17106286  0.26059734  1
  C  C135  1  0.72617781  0.17387132  0.32494217  1
  C  C136  1  0.78032152  0.25164406  0.36522188  1
  C  C137  1  0.76536816  0.25312606  0.43368023  1
  C  C138  1  0.85681572  0.25399438  0.47646280  1
  C  C139  1  0.84222717  0.25236625  0.54080469  1
  C  C140  1  0.73582759  0.25259484  0.56455297  1
  C  C141  1  0.71995438  0.25039079  0.63280511  1
  C  C142  1  0.64782169  0.32659456  0.66242216  1
  C  C143  1  0.63238703  0.32412751  0.72658841  1
  C  C144  1  0.68745828  0.24415475  0.76261048  1
  C  C145  1  0.67051102  0.24175859  0.83173859  1
  C  C146  1  0.75861894  0.16708057  0.73331437  1
  C  C147  1  0.77553941  0.17096066  0.66938786  1
  C  C148  1  0.64435543  0.25409724  0.52183612  1
  C  C149  1  0.65900429  0.25300115  0.45746271  1
  C  C150  1  0.84921684  0.32719508  0.33896512  1
  C  C151  1  0.86327738  0.32524287  0.27457140  1
  C  C152  1  0.75824431  0.82948521  0.16826375  1
  C  C153  1  0.75583447  0.81255070  0.23739258  1
  C  C154  1  0.83293163  0.74138341  0.26668211  1
  C  C155  1  0.82903736  0.72447273  0.33061373  1
  C  C156  1  0.74961712  0.78003833  0.36719601  1
  C  C157  1  0.74740230  0.76418645  0.43545096  1
  C  C158  1  0.74589860  0.85563589  0.47816375  1
  C  C159  1  0.74699609  0.84099940  0.54253778  1
  C  C160  1  0.74687643  0.73461736  0.56631877  1
  C  C161  1  0.74836574  0.71968398  0.63477981  1
  C  C162  1  0.67280835  0.65077359  0.66103511  1
  C  C163  1  0.67477134  0.63672001  0.72542744  1
  C  C164  1  0.75314115  0.69032233  0.76518457  1
  C  C165  1  0.75542699  0.67374820  0.83442157  1
  C  C166  1  0.82894225  0.75888006  0.73940114  1
  C  C167  1  0.82612338  0.77382676  0.67505919  1
  C  C168  1  0.74601322  0.64319361  0.52353749  1
  C  C169  1  0.74763858  0.65776984  0.45919546  1
  C  C170  1  0.67339219  0.85217846  0.33758522  1
  C  C171  1  0.67587464  0.86760227  0.27341353  1
  I  I172  1  0.23942421  0.05618972  0.99140553  1
  I  I173  1  0.24436623  0.41392297  0.00489584  1
  I  I174  1  0.74435995  0.91392956  0.00489805  1
  I  I175  1  0.73942074  0.55619316  0.99140902  1
  I  I176  1  0.94381574  0.26057921  0.00858995  1
  I  I177  1  0.08604194  0.75564762  0.99509947  1
  I  I178  1  0.58604399  0.25565238  0.99509929  1
  I  I179  1  0.44381225  0.76058733  0.00858755  1
  I  I180  1  0.96445796  0.02085172  0.85321470  1
  I  I181  1  0.02616900  0.00897514  0.15536442  1
  I  I182  1  0.99103771  0.47382687  0.84463815  1
  I  I183  1  0.97915145  0.53554435  0.14678438  1
  I  I184  1  0.49103337  0.97382841  0.84463796  1
  I  I185  1  0.47914945  0.03554214  0.14678463  1
  I  I186  1  0.46445841  0.52085279  0.85321434  1
  I  I187  1  0.52616960  0.50897771  0.15536534  1
  N  N188  1  0.17904776  0.25415688  0.86776308  1
  N  N189  1  0.19368765  0.24274882  0.13072526  1
  N  N190  1  0.25724383  0.80631657  0.86927540  1
  N  N191  1  0.24583196  0.82094822  0.13223710  1
  N  N192  1  0.74583687  0.32094772  0.13223713  1
  N  N193  1  0.75724647  0.30631855  0.86927539  1
  N  N194  1  0.69368400  0.74274994  0.13072767  1
  N  N195  1  0.67904810  0.75416385  0.86776214  1
