# generated using pymatgen
data_H8PbC4S(I2N)2
_symmetry_space_group_name_H-M   'P 1'
_cell_length_a   12.39207915
_cell_length_b   12.10697388
_cell_length_c   10.57183455
_cell_angle_alpha   86.71513756
_cell_angle_beta   86.37097437
_cell_angle_gamma   89.16436091
_symmetry_Int_Tables_number   1
_chemical_formula_structural   H8PbC4S(I2N)2
_chemical_formula_sum   'H32 Pb4 C16 S4 I16 N8'
_cell_volume   1580.22167938
_cell_formula_units_Z   4
loop_
 _symmetry_equiv_pos_site_id
 _symmetry_equiv_pos_as_xyz
  1  'x, y, z'
loop_
 _atom_site_type_symbol
 _atom_site_label
 _atom_site_symmetry_multiplicity
 _atom_site_fract_x
 _atom_site_fract_y
 _atom_site_fract_z
 _atom_site_occupancy
  H  H0  1  0.27484559  0.30089696  0.82531169  1
  H  H1  1  0.37440934  0.28238819  0.71564380  1
  H  H2  1  0.29234357  0.17579523  0.76578020  1
  H  H3  1  0.22231961  0.38834719  0.63482835  1
  H  H4  1  0.13944283  0.27144393  0.67606625  1
  H  H5  1  0.26554134  0.40982987  0.39160840  1
  H  H6  1  0.29223746  0.29368098  0.20797290  1
  H  H7  1  0.29960684  0.08980455  0.25330169  1
  H  H8  1  0.28022047  0.71887333  0.82242901  1
  H  H9  1  0.27854798  0.62075311  0.71729999  1
  H  H10  1  0.16625722  0.69784533  0.74850705  1
  H  H11  1  0.38000269  0.77782057  0.63181517  1
  H  H12  1  0.26558167  0.86490956  0.66325661  1
  H  H13  1  0.40657269  0.72342528  0.39428735  1
  H  H14  1  0.29758459  0.70961634  0.20864336  1
  H  H15  1  0.09901644  0.73447214  0.24207066  1
  H  H16  1  0.68028741  0.20978342  0.18938832  1
  H  H17  1  0.71448943  0.11479392  0.30125910  1
  H  H18  1  0.80751043  0.20296613  0.23146434  1
  H  H19  1  0.60795048  0.28085032  0.37566701  1
  H  H20  1  0.72221532  0.36029071  0.32239192  1
  H  H21  1  0.59213863  0.23448231  0.61710835  1
  H  H22  1  0.70822791  0.21747586  0.79864323  1
  H  H23  1  0.90682555  0.22612164  0.75009308  1
  H  H24  1  0.76230866  0.71188865  0.17272547  1
  H  H25  1  0.86074282  0.74180954  0.26537503  1
  H  H26  1  0.76132921  0.83506824  0.23966825  1
  H  H27  1  0.72859120  0.61013223  0.36610624  1
  H  H28  1  0.62867097  0.71683890  0.35049085  1
  H  H29  1  0.79242489  0.58493490  0.59600501  1
  H  H30  1  0.81358552  0.69617136  0.78094331  1
  H  H31  1  0.78456094  0.89907894  0.75198257  1
  Pb  Pb32  1  0.02109421  0.01424573  0.00973894  1
  Pb  Pb33  1  0.00132415  0.49985374  0.01166802  1
  Pb  Pb34  1  0.51485175  0.98492760  0.99068639  1
  Pb  Pb35  1  0.50528375  0.50525793  0.98603614  1
  C  C36  1  0.22105660  0.29761176  0.64143156  1
  C  C37  1  0.25118631  0.25581710  0.51402006  1
  C  C38  1  0.26600395  0.32014509  0.40366064  1
  C  C39  1  0.28693201  0.14918677  0.32654017  1
  C  C40  1  0.29142724  0.78238233  0.63398554  1
  C  C41  1  0.25476565  0.75991469  0.50638359  1
  C  C42  1  0.31939465  0.73461773  0.40208662  1
  C  C43  1  0.15481660  0.73947181  0.31724094  1
  C  C44  1  0.69657338  0.27892794  0.36439493  1
  C  C45  1  0.74063317  0.25540806  0.49153189  1
  C  C46  1  0.67947799  0.23972442  0.60336727  1
  C  C47  1  0.84778755  0.23380364  0.67810154  1
  C  C48  1  0.71397386  0.69965305  0.36718013  1
  C  C49  1  0.74415932  0.73922243  0.49099275  1
  C  C50  1  0.77770772  0.67365063  0.59119132  1
  C  C51  1  0.77592894  0.84168982  0.67722491  1
  S  S52  1  0.26220884  0.11661303  0.48192063  1
  S  S53  1  0.12058230  0.77065499  0.46761727  1
  S  S54  1  0.87714993  0.25550574  0.52127611  1
  S  S55  1  0.73362091  0.87606365  0.53229255  1
  I  I56  1  0.26837750  0.06750712  0.01123050  1
  I  I57  1  0.25179136  0.42394832  0.01425998  1
  I  I58  1  0.76920672  0.96491947  0.98147171  1
  I  I59  1  0.74936180  0.58898853  0.99085501  1
  I  I60  1  0.91805099  0.25912278  0.01410404  1
  I  I61  1  0.04750797  0.75793093  0.98995347  1
  I  I62  1  0.56646619  0.24507730  0.00088238  1
  I  I63  1  0.40051943  0.74676355  0.99452793  1
  I  I64  1  0.06197586  0.02320644  0.70509620  1
  I  I65  1  0.95495633  0.99241334  0.31069512  1
  I  I66  1  0.01988836  0.52048794  0.70622382  1
  I  I67  1  0.95751577  0.50689058  0.31415570  1
  I  I68  1  0.48902154  0.01973370  0.69475606  1
  I  I69  1  0.54155296  0.95729511  0.29893643  1
  I  I70  1  0.46264127  0.49701274  0.67476003  1
  I  I71  1  0.49219247  0.50211990  0.28032552  1
  N  N72  1  0.29538599  0.26011106  0.74202012  1
  N  N73  1  0.28463216  0.25815804  0.29979198  1
  N  N74  1  0.24990557  0.69989600  0.73586696  1
  N  N75  1  0.26102015  0.72366641  0.29760039  1
  N  N76  1  0.72772396  0.19598919  0.26790662  1
  N  N77  1  0.74151242  0.22814501  0.70643277  1
  N  N78  1  0.77873728  0.75149406  0.25515580  1
  N  N79  1  0.79450899  0.73339965  0.69428698  1
