# generated using pymatgen
data_H20PbC20(I2N)2
_symmetry_space_group_name_H-M   'P 1'
_cell_length_a   12.34815094
_cell_length_b   12.38176996
_cell_length_c   19.60071470
_cell_angle_alpha   93.44126951
_cell_angle_beta   92.23870453
_cell_angle_gamma   91.58193150
_symmetry_Int_Tables_number   1
_chemical_formula_structural   H20PbC20(I2N)2
_chemical_formula_sum   'H80 Pb4 C80 I16 N8'
_cell_volume   2987.75702368
_cell_formula_units_Z   4
loop_
 _symmetry_equiv_pos_site_id
 _symmetry_equiv_pos_as_xyz
  1  'x, y, z'
loop_
 _atom_site_type_symbol
 _atom_site_label
 _atom_site_symmetry_multiplicity
 _atom_site_fract_x
 _atom_site_fract_y
 _atom_site_fract_z
 _atom_site_occupancy
  H  H0  1  0.24323936  0.29434426  0.91127003  1
  H  H1  1  0.17400424  0.31476301  0.83890581  1
  H  H2  1  0.18349220  0.18887991  0.86707004  1
  H  H3  1  0.37605296  0.31910273  0.83190071  1
  H  H4  1  0.37233513  0.18016330  0.85098638  1
  H  H5  1  0.31224636  0.03852414  0.76577229  1
  H  H6  1  0.28477143  0.98105059  0.64309948  1
  H  H7  1  0.26001706  0.02945077  0.52295914  1
  H  H8  1  0.23434919  0.07775242  0.40313476  1
  H  H9  1  0.20476546  0.12585137  0.28349786  1
  H  H10  1  0.13382912  0.17623892  0.17225570  1
  H  H11  1  0.12168761  0.31494963  0.15453291  1
  H  H12  1  0.32996087  0.19401196  0.15730766  1
  H  H13  1  0.31450269  0.32393423  0.13744210  1
  H  H14  1  0.25568579  0.22367710  0.08829889  1
  H  H15  1  0.18847224  0.46131524  0.23782958  1
  H  H16  1  0.21985554  0.51919225  0.36006906  1
  H  H17  1  0.24859332  0.47121279  0.48021747  1
  H  H18  1  0.27455728  0.42284913  0.60023336  1
  H  H19  1  0.30303178  0.37428788  0.71999952  1
  H  H20  1  0.29276518  0.76410447  0.90908318  1
  H  H21  1  0.31810668  0.82344626  0.83704472  1
  H  H22  1  0.19214908  0.82124620  0.86593690  1
  H  H23  1  0.31041940  0.62291614  0.82548532  1
  H  H24  1  0.17174955  0.62950699  0.84631920  1
  H  H25  1  0.03325251  0.68291750  0.76400777  1
  H  H26  1  0.97820921  0.71059013  0.64377987  1
  H  H27  1  0.02852793  0.73983787  0.52543316  1
  H  H28  1  0.07866160  0.77200439  0.40745929  1
  H  H29  1  0.12918693  0.80463498  0.28922280  1
  H  H30  1  0.18335095  0.86356933  0.17849598  1
  H  H31  1  0.32269984  0.87793822  0.16033160  1
  H  H32  1  0.20037846  0.66691934  0.16025335  1
  H  H33  1  0.32870874  0.68462946  0.13751864  1
  H  H34  1  0.22632364  0.73403910  0.09120278  1
  H  H35  1  0.46675415  0.81702007  0.24028944  1
  H  H36  1  0.52189689  0.78435942  0.35975270  1
  H  H37  1  0.47155251  0.74931270  0.47749874  1
  H  H38  1  0.42125480  0.71530821  0.59540234  1
  H  H39  1  0.37036855  0.68422683  0.71401319  1
  H  H40  1  0.71081448  0.26101667  0.09152868  1
  H  H41  1  0.68002894  0.31726280  0.16711034  1
  H  H42  1  0.80860923  0.32448971  0.14306255  1
  H  H43  1  0.68574378  0.11945612  0.16646562  1
  H  H44  1  0.82552500  0.13052895  0.14630670  1
  H  H45  1  0.96355868  0.18859116  0.23179659  1
  H  H46  1  0.01963057  0.21844383  0.35401639  1
  H  H47  1  0.97193655  0.24380433  0.47403816  1
  H  H48  1  0.92403609  0.27119132  0.59466931  1
  H  H49  1  0.87508928  0.30257860  0.71582862  1
  H  H50  1  0.81966897  0.36762480  0.83041324  1
  H  H51  1  0.67937872  0.36957616  0.84967322  1
  H  H52  1  0.81087435  0.17081716  0.83504106  1
  H  H53  1  0.68034583  0.17312204  0.85489666  1
  H  H54  1  0.77723741  0.23357812  0.90819442  1
  H  H55  1  0.53811617  0.30834721  0.76499215  1
  H  H56  1  0.48222324  0.27777933  0.64289524  1
  H  H57  1  0.52960975  0.24834621  0.52310086  1
  H  H58  1  0.57754444  0.21898110  0.40244109  1
  H  H59  1  0.62667945  0.18732653  0.28138261  1
  H  H60  1  0.74646628  0.68828182  0.09146625  1
  H  H61  1  0.68094139  0.67022018  0.16328371  1
  H  H62  1  0.68904697  0.79328357  0.13054720  1
  H  H63  1  0.88462959  0.67887345  0.17458798  1
  H  H64  1  0.87681674  0.81670239  0.15323719  1
  H  H65  1  0.82212755  0.95677746  0.23564690  1
  H  H66  1  0.79206651  0.01498663  0.35589063  1
  H  H67  1  0.76056773  0.96938427  0.47435095  1
  H  H68  1  0.72781599  0.92322276  0.59287128  1
  H  H69  1  0.69558031  0.87687721  0.71164926  1
  H  H70  1  0.63260742  0.82618990  0.82181990  1
  H  H71  1  0.62178802  0.68743482  0.84132468  1
  H  H72  1  0.83087223  0.81652275  0.83940594  1
  H  H73  1  0.81288467  0.68858417  0.86498193  1
  H  H74  1  0.76087024  0.79253618  0.90866228  1
  H  H75  1  0.68364845  0.54197619  0.76076935  1
  H  H76  1  0.71538242  0.48332561  0.64092176  1
  H  H77  1  0.74989057  0.52899882  0.52249714  1
  H  H78  1  0.78422066  0.57526961  0.40407275  1
  H  H79  1  0.81690378  0.62207523  0.28513005  1
  Pb  Pb80  1  0.99526778  0.99314316  0.98907677  1
  Pb  Pb81  1  0.99626303  0.49090804  0.99777018  1
  Pb  Pb82  1  0.50358057  0.01183961  0.00258488  1
  Pb  Pb83  1  0.50116937  0.50752880  0.00907696  1
  C  C84  1  0.32851930  0.24268079  0.82473190  1
  C  C85  1  0.30703050  0.21070958  0.75024053  1
  C  C86  1  0.30126608  0.09845029  0.72776445  1
  C  C87  1  0.28683296  0.06682111  0.65985826  1
  C  C88  1  0.27565160  0.14508384  0.60944327  1
  C  C89  1  0.26252175  0.11529461  0.53978425  1
  C  C90  1  0.25243429  0.19313490  0.49041181  1
  C  C91  1  0.23827452  0.16361160  0.41994497  1
  C  C92  1  0.22808703  0.24119249  0.37142380  1
  C  C93  1  0.21064625  0.21177199  0.30009518  1
  C  C94  1  0.19748267  0.28913377  0.25317510  1
  C  C95  1  0.17387956  0.25668795  0.17895575  1
  C  C96  1  0.20201273  0.40147773  0.27562926  1
  C  C97  1  0.21836132  0.43340952  0.34339437  1
  C  C98  1  0.23165054  0.35540828  0.39382992  1
  C  C99  1  0.24603396  0.38535309  0.46343323  1
  C  C100  1  0.25653326  0.30758599  0.51286204  1
  C  C101  1  0.27033023  0.33701278  0.58337252  1
  C  C102  1  0.27936302  0.25929338  0.63191320  1
  C  C103  1  0.29598895  0.28841594  0.70333135  1
  C  C104  1  0.23684930  0.67009553  0.82006806  1
  C  C105  1  0.20624229  0.68513361  0.74649773  1
  C  C106  1  0.09420292  0.69178887  0.72581462  1
  C  C107  1  0.06381535  0.70640162  0.65920412  1
  C  C108  1  0.14308177  0.71695193  0.60852068  1
  C  C109  1  0.11424374  0.73472516  0.54065132  1
  C  C110  1  0.19290071  0.74732860  0.49122017  1
  C  C111  1  0.16439055  0.76695435  0.42272829  1
  C  C112  1  0.24287062  0.77970909  0.37418707  1
  C  C113  1  0.21484168  0.79842220  0.30446795  1
  C  C114  1  0.29348750  0.80937028  0.25724457  1
  C  C115  1  0.26270197  0.82643893  0.18402801  1
  C  C116  1  0.40572474  0.80470895  0.27805208  1
  C  C117  1  0.43619764  0.78743898  0.34427702  1
  C  C118  1  0.35693897  0.77331475  0.39461835  1
  C  C119  1  0.38579199  0.75398157  0.46226188  1
  C  C120  1  0.30713389  0.74033666  0.51161925  1
  C  C121  1  0.33555980  0.72074904  0.58014139  1
  C  C122  1  0.25706727  0.70956936  0.62889743  1
  C  C123  1  0.28488299  0.69222961  0.69887007  1
  C  C124  1  0.76057602  0.16929948  0.17462338  1
  C  C125  1  0.79092100  0.18858438  0.24933814  1
  C  C126  1  0.90309473  0.19788188  0.27049937  1
  C  C127  1  0.93407902  0.21383122  0.33810955  1
  C  C128  1  0.85551511  0.22382472  0.38939005  1
  C  C129  1  0.88584057  0.23924427  0.45860668  1
  C  C130  1  0.80805974  0.24902577  0.50908956  1
  C  C131  1  0.83800893  0.26564396  0.57916165  1
  C  C132  1  0.76038713  0.27557646  0.62880578  1
  C  C133  1  0.78927467  0.29425071  0.69997625  1
  C  C134  1  0.71090540  0.30438905  0.74779445  1
  C  C135  1  0.74122399  0.32385953  0.82247066  1
  C  C136  1  0.59870216  0.29725037  0.72648428  1
  C  C137  1  0.56768773  0.28094376  0.65890526  1
  C  C138  1  0.64614773  0.26899141  0.60767834  1
  C  C139  1  0.61571472  0.25270387  0.53851389  1
  C  C140  1  0.69345309  0.24214077  0.48802954  1
  C  C141  1  0.66355408  0.22523242  0.41797392  1
  C  C142  1  0.74124723  0.21621052  0.36832560  1
  C  C143  1  0.71246184  0.19726496  0.29717418  1
  C  C144  1  0.83631551  0.75181111  0.17941811  1
  C  C145  1  0.81854312  0.78466122  0.25294892  1
  C  C146  1  0.81160236  0.89697794  0.27364501  1
  C  C147  1  0.79581884  0.92931239  0.34038330  1
  C  C148  1  0.78402062  0.85211297  0.39111425  1
  C  C149  1  0.76550117  0.88332314  0.45915262  1
  C  C150  1  0.75230048  0.80653006  0.50871664  1
  C  C151  1  0.73260268  0.83724248  0.57747797  1
  C  C152  1  0.71978282  0.76066543  0.62621819  1
  C  C153  1  0.70114699  0.79099296  0.69619455  1
  C  C154  1  0.69041654  0.71434564  0.74369945  1
  C  C155  1  0.67183410  0.74781959  0.81702713  1
  C  C156  1  0.69587259  0.60179991  0.72295664  1
  C  C157  1  0.71253533  0.56915938  0.65635645  1
  C  C158  1  0.72607440  0.64627530  0.60568706  1
  C  C159  1  0.74524664  0.61507632  0.53772350  1
  C  C160  1  0.75909153  0.69187022  0.48818719  1
  C  C161  1  0.77902002  0.66121692  0.41943803  1
  C  C162  1  0.79113754  0.73781832  0.37059826  1
  C  C163  1  0.80966847  0.70781220  0.30054347  1
  I  I164  1  0.24701981  0.05694040  0.97589512  1
  I  I165  1  0.25168186  0.43826410  0.01630503  1
  I  I166  1  0.74437986  0.92525991  0.01882191  1
  I  I167  1  0.75444849  0.56677551  0.98170944  1
  I  I168  1  0.92823900  0.23829068  0.00599929  1
  I  I169  1  0.07345800  0.74057248  0.99129594  1
  I  I170  1  0.57016269  0.26176405  0.99303496  1
  I  I171  1  0.43537709  0.75901064  0.00962633  1
  I  I172  1  0.95950956  0.97968902  0.82191682  1
  I  I173  1  0.02367802  0.99115494  0.14780732  1
  I  I174  1  0.02338875  0.44895462  0.83462561  1
  I  I175  1  0.96500746  0.48308984  0.16034725  1
  I  I176  1  0.53130698  0.01049895  0.84086875  1
  I  I177  1  0.47082340  0.05768504  0.16604962  1
  I  I178  1  0.48183899  0.50904915  0.84932079  1
  I  I179  1  0.52199273  0.52136535  0.17638362  1
  N  N180  1  0.22570670  0.26079817  0.86195861  1
  N  N181  1  0.27503487  0.24961492  0.13865128  1
  N  N182  1  0.26113606  0.77703547  0.86004883  1
  N  N183  1  0.25439958  0.72073095  0.14085377  1
  N  N184  1  0.73911829  0.27462572  0.14229952  1
  N  N185  1  0.75267184  0.21882496  0.85694218  1
  N  N186  1  0.73111880  0.72444592  0.13956959  1
  N  N187  1  0.77640643  0.76157983  0.85947275  1
