# generated using pymatgen
data_H9PbC5I4N3
_symmetry_space_group_name_H-M   'P 1'
_cell_length_a   12.37122275
_cell_length_b   12.34670893
_cell_length_c   10.43265444
_cell_angle_alpha   90.77242939
_cell_angle_beta   90.60349068
_cell_angle_gamma   89.81799536
_symmetry_Int_Tables_number   1
_chemical_formula_structural   H9PbC5I4N3
_chemical_formula_sum   'H36 Pb4 C20 I16 N12'
_cell_volume   1593.28365274
_cell_formula_units_Z   4
loop_
 _symmetry_equiv_pos_site_id
 _symmetry_equiv_pos_as_xyz
  1  'x, y, z'
loop_
 _atom_site_type_symbol
 _atom_site_label
 _atom_site_symmetry_multiplicity
 _atom_site_fract_x
 _atom_site_fract_y
 _atom_site_fract_z
 _atom_site_occupancy
  H  H0  1  0.18405771  0.25746487  0.73313101  1
  H  H1  1  0.31804828  0.25635014  0.73513236  1
  H  H2  1  0.25138644  0.16272421  0.81398095  1
  H  H3  1  0.17846057  0.08161441  0.62151108  1
  H  H4  1  0.32344260  0.08138758  0.62339278  1
  H  H5  1  0.25364186  0.05671913  0.36077468  1
  H  H6  1  0.25509053  0.16974965  0.18100236  1
  H  H7  1  0.25360549  0.35844937  0.18645745  1
  H  H8  1  0.25116590  0.45156201  0.40706180  1
  H  H9  1  0.25728053  0.81278373  0.73498928  1
  H  H10  1  0.25581923  0.67840472  0.73209610  1
  H  H11  1  0.16316207  0.74626719  0.81441300  1
  H  H12  1  0.08101598  0.82016804  0.62527378  1
  H  H13  1  0.08162994  0.67501140  0.62105650  1
  H  H14  1  0.05727626  0.74731056  0.36124320  1
  H  H15  1  0.17022590  0.74555656  0.18129321  1
  H  H16  1  0.35871662  0.74773491  0.18679745  1
  H  H17  1  0.45094243  0.75033269  0.40767746  1
  H  H18  1  0.74401077  0.32155384  0.26794321  1
  H  H19  1  0.74268758  0.18716703  0.26473617  1
  H  H20  1  0.83667972  0.25392558  0.18541604  1
  H  H21  1  0.91832825  0.32490808  0.37878304  1
  H  H22  1  0.91890517  0.17974884  0.37449110  1
  H  H23  1  0.94270633  0.25280499  0.63855911  1
  H  H24  1  0.82977140  0.25455436  0.81850874  1
  H  H25  1  0.64124769  0.25203713  0.81303768  1
  H  H26  1  0.54903362  0.24937995  0.59217845  1
  H  H27  1  0.68217932  0.74366326  0.26443276  1
  H  H28  1  0.81617406  0.74248266  0.26677947  1
  H  H29  1  0.74903632  0.83735017  0.18586385  1
  H  H30  1  0.67659048  0.91844345  0.37640090  1
  H  H31  1  0.82156214  0.91837464  0.37842229  1
  H  H32  1  0.74639579  0.94315790  0.63907712  1
  H  H33  1  0.74499280  0.83014883  0.81880984  1
  H  H34  1  0.74654469  0.64142185  0.81334356  1
  H  H35  1  0.74887677  0.54831428  0.59273518  1
  Pb  Pb36  1  0.99995782  0.00116333  0.00032899  1
  Pb  Pb37  1  0.99930522  0.50086408  0.00055862  1
  Pb  Pb38  1  0.49912103  0.00026614  0.00067018  1
  Pb  Pb39  1  0.50020611  0.50091488  0.00034022  1
  C  C40  1  0.25073647  0.13344602  0.61554756  1
  C  C41  1  0.25088788  0.19708115  0.49429573  1
  C  C42  1  0.25276376  0.14388450  0.37520388  1
  C  C43  1  0.25269927  0.31509726  0.27654545  1
  C  C44  1  0.25122833  0.36382849  0.39746822  1
  C  C45  1  0.13319374  0.74779003  0.61608583  1
  C  C46  1  0.19685660  0.74900320  0.49474537  1
  C  C47  1  0.14416662  0.74843625  0.37569413  1
  C  C48  1  0.31514355  0.74885341  0.27686434  1
  C  C49  1  0.36345771  0.75011400  0.39794673  1
  C  C50  1  0.86674671  0.25214438  0.38372857  1
  C  C51  1  0.80311688  0.25090638  0.50508351  1
  C  C52  1  0.85581333  0.25155955  0.62411384  1
  C  C53  1  0.68484034  0.25095338  0.72298636  1
  C  C54  1  0.63652157  0.24965315  0.60189175  1
  C  C55  1  0.74934203  0.86645713  0.38428692  1
  C  C56  1  0.74916713  0.80280639  0.50552431  1
  C  C57  1  0.74730456  0.85599253  0.62461445  1
  C  C58  1  0.74742259  0.68477993  0.72326710  1
  C  C59  1  0.74883546  0.63604819  0.60232965  1
  I  I60  1  0.24877002  0.93573933  0.98739722  1
  I  I61  1  0.24791293  0.57518100  0.99611867  1
  I  I62  1  0.75060556  0.06311785  0.01334787  1
  I  I63  1  0.75196605  0.42414456  0.00390941  1
  I  I64  1  0.06545118  0.24907914  0.99690378  1
  I  I65  1  0.93525522  0.75213541  0.00283868  1
  I  I66  1  0.42493164  0.24884023  0.99147485  1
  I  I67  1  0.57554941  0.75128629  0.00840089  1
  I  I68  1  0.98311105  0.00631425  0.69492947  1
  I  I69  1  0.01694641  0.99380491  0.30571980  1
  I  I70  1  0.00273131  0.48376648  0.69561424  1
  I  I71  1  0.99696495  0.51653141  0.30567851  1
  I  I72  1  0.50738918  0.98920509  0.69606600  1
  I  I73  1  0.49241617  0.01075296  0.30527188  1
  I  I74  1  0.49407875  0.49736031  0.69616974  1
  I  I75  1  0.50613701  0.50223599  0.30428600  1
  N  N76  1  0.25071513  0.20685625  0.73032366  1
  N  N77  1  0.25283207  0.20623733  0.27024788  1
  N  N78  1  0.24976638  0.30534050  0.50483428  1
  N  N79  1  0.20672248  0.74635605  0.73033351  1
  N  N80  1  0.20658260  0.74846167  0.27055949  1
  N  N81  1  0.30491808  0.75040998  0.50533500  1
  N  N82  1  0.79317816  0.25364529  0.26952742  1
  N  N83  1  0.79340093  0.25147676  0.72926835  1
  N  N84  1  0.69504424  0.24940645  0.49450872  1
  N  N85  1  0.74953316  0.79311705  0.26946067  1
  N  N86  1  0.74725770  0.79363848  0.72957496  1
  N  N87  1  0.75025413  0.69453924  0.49497416  1
