# generated using pymatgen
data_H13PbC7I4N3
_symmetry_space_group_name_H-M   'P 1'
_cell_length_a   12.73870002
_cell_length_b   12.65793962
_cell_length_c   11.78940983
_cell_angle_alpha   89.57545911
_cell_angle_beta   89.97615250
_cell_angle_gamma   89.56296019
_symmetry_Int_Tables_number   1
_chemical_formula_structural   H13PbC7I4N3
_chemical_formula_sum   'H52 Pb4 C28 I16 N12'
_cell_volume   1900.88398105
_cell_formula_units_Z   4
loop_
 _symmetry_equiv_pos_site_id
 _symmetry_equiv_pos_as_xyz
  1  'x, y, z'
loop_
 _atom_site_type_symbol
 _atom_site_label
 _atom_site_symmetry_multiplicity
 _atom_site_fract_x
 _atom_site_fract_y
 _atom_site_fract_z
 _atom_site_occupancy
  H  H0  1  0.32732482  0.27968369  0.80876790  1
  H  H1  1  0.36329736  0.16093515  0.75806696  1
  H  H2  1  0.27850868  0.16746666  0.86424955  1
  H  H3  1  0.18679166  0.12536394  0.69373919  1
  H  H4  1  0.14356415  0.24644448  0.75273056  1
  H  H5  1  0.20948979  0.41951907  0.67025624  1
  H  H6  1  0.28839973  0.42633778  0.33040122  1
  H  H7  1  0.38062234  0.25796901  0.25424298  1
  H  H8  1  0.34058969  0.13372376  0.30971428  1
  H  H9  1  0.21169361  0.28395211  0.17132449  1
  H  H10  1  0.16187238  0.17693966  0.23556219  1
  H  H11  1  0.25455194  0.16302303  0.13770691  1
  H  H12  1  0.26519914  0.12385577  0.49967835  1
  H  H13  1  0.27222076  0.66182407  0.80406865  1
  H  H14  1  0.15222048  0.63637835  0.75341649  1
  H  H15  1  0.16436599  0.71622673  0.86321207  1
  H  H16  1  0.12587589  0.81848857  0.69517435  1
  H  H17  1  0.24785780  0.85208633  0.75670036  1
  H  H18  1  0.41624226  0.78500289  0.67357899  1
  H  H19  1  0.42255848  0.70297703  0.33523201  1
  H  H20  1  0.25735020  0.62386597  0.25221349  1
  H  H21  1  0.13310556  0.66066487  0.30821389  1
  H  H22  1  0.28145398  0.80639069  0.18946189  1
  H  H23  1  0.16539817  0.84159926  0.24254929  1
  H  H24  1  0.16942841  0.75496543  0.13763753  1
  H  H25  1  0.12211297  0.73829747  0.50021903  1
  H  H26  1  0.71508470  0.20961702  0.17686258  1
  H  H27  1  0.82961855  0.16156385  0.22730205  1
  H  H28  1  0.82825811  0.25942926  0.13171382  1
  H  H29  1  0.87063871  0.33290925  0.31021192  1
  H  H30  1  0.74933479  0.38183307  0.25772640  1
  H  H31  1  0.57821416  0.29018407  0.33101532  1
  H  H32  1  0.58177171  0.21134553  0.67171219  1
  H  H33  1  0.75143391  0.13902372  0.75423696  1
  H  H34  1  0.87276162  0.17292586  0.69092395  1
  H  H35  1  0.73202509  0.32207520  0.81633544  1
  H  H36  1  0.84465776  0.35594513  0.75301845  1
  H  H37  1  0.84569837  0.26995750  0.85932681  1
  H  H38  1  0.87734203  0.25675304  0.49986718  1
  H  H39  1  0.80367672  0.71643187  0.18775307  1
  H  H40  1  0.84302639  0.83422922  0.23446186  1
  H  H41  1  0.75268265  0.82823406  0.13255160  1
  H  H42  1  0.66918974  0.87472503  0.30766747  1
  H  H43  1  0.62404359  0.75332722  0.25293439  1
  H  H44  1  0.70165578  0.57984814  0.33392710  1
  H  H45  1  0.78359014  0.58147229  0.67292637  1
  H  H46  1  0.85919089  0.74925237  0.75369867  1
  H  H47  1  0.83092543  0.87249251  0.68788597  1
  H  H48  1  0.67583944  0.73967948  0.81444313  1
  H  H49  1  0.64617801  0.85260108  0.74728925  1
  H  H50  1  0.72949846  0.85261892  0.85508619  1
  H  H51  1  0.74714030  0.87990569  0.49765628  1
  Pb  Pb52  1  0.99637747  0.00387840  -0.00646853  1
  Pb  Pb53  1  0.99127439  0.50330950  0.01003676  1
  Pb  Pb54  1  0.49421156  0.99143068  0.00909099  1
  Pb  Pb55  1  0.49313301  0.49609924  0.99149340  1
  C  C56  1  0.20880206  0.20785466  0.70772729  1
  C  C57  1  0.23377264  0.26435439  0.59889487  1
  C  C58  1  0.22938889  0.37508483  0.59401291  1
  C  C59  1  0.27126619  0.37883010  0.40594534  1
  C  C60  1  0.27954228  0.26835747  0.40099198  1
  C  C61  1  0.31518220  0.21563322  0.29433819  1
  C  C62  1  0.25957885  0.21012638  0.49978360  1
  C  C63  1  0.20662654  0.79060447  0.70918027  1
  C  C64  1  0.26207651  0.76521929  0.60062268  1
  C  C65  1  0.37213631  0.76558567  0.59713246  1
  C  C66  1  0.37566960  0.72197668  0.41008329  1
  C  C67  1  0.26579848  0.71829318  0.40370408  1
  C  C68  1  0.21400682  0.68743191  0.29518753  1
  C  C69  1  0.20791796  0.74083426  0.50127829  1
  C  C70  1  0.78850147  0.31213812  0.29497138  1
  C  C71  1  0.73479484  0.27660180  0.40144966  1
  C  C72  1  0.62485314  0.27163470  0.40658366  1
  C  C73  1  0.62668725  0.22987286  0.59518460  1
  C  C74  1  0.73668097  0.23031913  0.59962452  1
  C  C75  1  0.79270711  0.20151479  0.70730098  1
  C  C76  1  0.79154383  0.25444296  0.50019786  1
  C  C77  1  0.69092650  0.79185824  0.29383354  1
  C  C78  1  0.72152194  0.73694884  0.40184246  1
  C  C79  1  0.72204027  0.62620349  0.40855826  1
  C  C80  1  0.76567850  0.62708443  0.59617572  1
  C  C81  1  0.76943635  0.73774546  0.59889769  1
  C  C82  1  0.79937988  0.79360942  0.70545903  1
  C  C83  1  0.74639720  0.79350177  0.49921130  1
  I  I84  1  0.24505271  0.98875696  0.99310996  1
  I  I85  1  0.24201786  0.50069962  0.01687520  1
  I  I86  1  0.74787419  0.01582269  1.00064709  1
  I  I87  1  0.74643454  0.46940619  0.00510987  1
  I  I88  1  0.01723863  0.25163043  0.99874666  1
  I  I89  1  -0.00748868  0.75428404  -0.00262522  1
  I  I90  1  0.49555019  0.24115465  0.01501515  1
  I  I91  1  0.54028063  0.74421027  0.00506487  1
  I  I92  1  0.00231405  0.00237836  0.73043059  1
  I  I93  1  0.99147050  0.00411714  0.27919149  1
  I  I94  1  0.99680936  0.50190779  0.73037311  1
  I  I95  1  0.97720756  0.52381464  0.27199534  1
  I  I96  1  0.49471470  0.00008216  0.73049778  1
  I  I97  1  0.45948701  0.96375300  0.26926672  1
  I  I98  1  0.47204633  0.49888116  0.72751681  1
  I  I99  1  0.49919545  0.49761580  0.25771054  1
  N  N100  1  0.30020449  0.20523953  0.78945820  1
  N  N101  1  0.24639111  0.43204030  0.49989055  1
  N  N102  1  0.23009564  0.21036870  0.20454440  1
  N  N103  1  0.19967312  0.69549630  0.78711182  1
  N  N104  1  0.42879551  0.74527295  0.50430577  1
  N  N105  1  0.20792981  0.77831408  0.21079815  1
  N  N106  1  0.78966332  0.22977954  0.20256752  1
  N  N107  1  0.57100398  0.24862553  0.50089880  1
  N  N108  1  0.80309905  0.29277054  0.78794723  1
  N  N109  1  0.77846470  0.79195410  0.20685059  1
  N  N110  1  0.74346143  0.57146359  0.50333907  1
  N  N111  1  0.70753011  0.80941588  0.78438261  1
