# generated using pymatgen
data_H12PbC6(IN)4
_symmetry_space_group_name_H-M   'P 1'
_cell_length_a   12.44525887
_cell_length_b   12.42133007
_cell_length_c   12.30158886
_cell_angle_alpha   90.45923907
_cell_angle_beta   90.08516100
_cell_angle_gamma   89.54992793
_symmetry_Int_Tables_number   1
_chemical_formula_structural   H12PbC6(IN)4
_chemical_formula_sum   'H48 Pb4 C24 I16 N16'
_cell_volume   1901.53995592
_cell_formula_units_Z   4
loop_
 _symmetry_equiv_pos_site_id
 _symmetry_equiv_pos_as_xyz
  1  'x, y, z'
loop_
 _atom_site_type_symbol
 _atom_site_label
 _atom_site_symmetry_multiplicity
 _atom_site_fract_x
 _atom_site_fract_y
 _atom_site_fract_z
 _atom_site_occupancy
  H  H0  1  0.25869348  0.27196624  0.87413580  1
  H  H1  1  0.32935579  0.19893008  0.78282835  1
  H  H2  1  0.33419007  0.33443887  0.77986656  1
  H  H3  1  0.14917118  0.35309708  0.73186494  1
  H  H4  1  0.13002884  0.21216607  0.75051237  1
  H  H5  1  0.21963876  0.07786111  0.61805872  1
  H  H6  1  0.22835238  0.12366870  0.24375140  1
  H  H7  1  0.36331578  0.15984920  0.26844096  1
  H  H8  1  0.18868030  0.29359151  0.17856204  1
  H  H9  1  0.27907257  0.35371329  0.26205772  1
  H  H10  1  0.31927581  0.28786692  0.14708269  1
  H  H11  1  0.21285013  0.41907887  0.55275330  1
  H  H12  1  0.28091864  0.73003215  0.87242449  1
  H  H13  1  0.19006435  0.67817974  0.78667084  1
  H  H14  1  0.32128531  0.65002812  0.77041456  1
  H  H15  1  0.36087588  0.83923889  0.73405763  1
  H  H16  1  0.22253668  0.87099704  0.75498946  1
  H  H17  1  0.08112793  0.78389278  0.62205731  1
  H  H18  1  0.12397865  0.77399472  0.24657586  1
  H  H19  1  0.15935251  0.63787721  0.27023952  1
  H  H20  1  0.29392947  0.81072047  0.18151210  1
  H  H21  1  0.35283757  0.71600722  0.26155957  1
  H  H22  1  0.28546813  0.68006165  0.14643696  1
  H  H23  1  0.42117634  0.78469247  0.55049657  1
  H  H24  1  0.72581664  0.22134906  0.12392320  1
  H  H25  1  0.80487351  0.16168561  0.21661613  1
  H  H26  1  0.67136367  0.14942622  0.22384910  1
  H  H27  1  0.64419646  0.33890751  0.26231443  1
  H  H28  1  0.78374671  0.36245814  0.24145106  1
  H  H29  1  0.92178267  0.28239364  0.37753894  1
  H  H30  1  0.87551116  0.27431249  0.75174165  1
  H  H31  1  0.83700334  0.13908286  0.72836377  1
  H  H32  1  0.70287761  0.31942010  0.81142927  1
  H  H33  1  0.64482039  0.21964751  0.73819931  1
  H  H34  1  0.71416863  0.19119680  0.85341231  1
  H  H35  1  0.58065378  0.28166289  0.44400489  1
  H  H36  1  0.77184216  0.72378216  0.13152693  1
  H  H37  1  0.82807565  0.80627327  0.22202552  1
  H  H38  1  0.84444051  0.67089698  0.23195413  1
  H  H39  1  0.65515606  0.64571185  0.26942905  1
  H  H40  1  0.63240933  0.78648259  0.25072815  1
  H  H41  1  0.72135455  0.92147153  0.38489222  1
  H  H42  1  0.72963601  0.87630952  0.75887997  1
  H  H43  1  0.86522204  0.84133137  0.73286932  1
  H  H44  1  0.69285949  0.70382289  0.82001913  1
  H  H45  1  0.79361775  0.64703791  0.74684411  1
  H  H46  1  0.82097280  0.71846748  0.86117083  1
  H  H47  1  0.71379564  0.58032875  0.45134680  1
  Pb  Pb48  1  0.01304529  0.99972263  0.00831136  1
  Pb  Pb49  1  0.99031539  0.49438405  0.99488553  1
  Pb  Pb50  1  0.51015606  0.99653619  0.99306274  1
  Pb  Pb51  1  0.48938298  0.49908059  0.00438979  1
  C  C52  1  0.18617907  0.27311945  0.72084350  1
  C  C53  1  0.21379830  0.25201605  0.60404698  1
  C  C54  1  0.22735031  0.14666660  0.56386825  1
  C  C55  1  0.25437208  0.21070501  0.39442685  1
  C  C56  1  0.27932926  0.18779228  0.27674387  1
  C  C57  1  0.22306128  0.33467506  0.52860630  1
  C  C58  1  0.27865806  0.80986025  0.72253079  1
  C  C59  1  0.25513075  0.78617258  0.60528898  1
  C  C60  1  0.14938036  0.77532133  0.56674689  1
  C  C61  1  0.21152265  0.74676688  0.39587676  1
  C  C62  1  0.18774107  0.72136606  0.27839653  1
  C  C63  1  0.33660082  0.77590726  0.52800693  1
  C  C64  1  0.72524298  0.30505044  0.27377857  1
  C  C65  1  0.74752803  0.28304918  0.39145743  1
  C  C66  1  0.85288288  0.27366387  0.43172332  1
  C  C67  1  0.78880784  0.24738251  0.60163124  1
  C  C68  1  0.81087750  0.22362239  0.71947464  1
  C  C69  1  0.66510267  0.27362572  0.46757443  1
  C  C70  1  0.68946546  0.72608178  0.28191123  1
  C  C71  1  0.71430763  0.74726800  0.39944563  1
  C  C72  1  0.72807435  0.85260504  0.43927199  1
  C  C73  1  0.75567336  0.78837279  0.60895636  1
  C  C74  1  0.78188743  0.81232997  0.72601489  1
  C  C75  1  0.72373405  0.66471037  0.47523829  1
  I  I76  1  0.26165924  0.95236550  0.04135317  1
  I  I77  1  0.23957803  0.53953778  0.01333666  1
  I  I78  1  0.75993798  0.03881904  0.96899708  1
  I  I79  1  0.74017082  0.46161161  0.96728254  1
  I  I80  1  0.07184837  0.24948235  0.00672846  1
  I  I81  1  0.96343644  0.74960172  1.00009655  1
  I  I82  1  0.46910390  0.24985589  0.01897256  1
  I  I83  1  0.53136870  0.74759361  0.94493692  1
  I  I84  1  0.03150524  0.99783435  0.75289814  1
  I  I85  1  0.94042100  0.00083824  0.26272342  1
  I  I86  1  0.01275719  0.53948690  0.73739048  1
  I  I87  1  0.96116213  0.50858040  0.25661729  1
  I  I88  1  0.47994785  0.05096676  0.73958088  1
  I  I89  1  0.53718903  0.00709187  0.25595783  1
  I  I90  1  0.45014548  0.48969009  0.73623294  1
  I  I91  1  0.47091476  0.50439553  0.26451220  1
  N  N92  1  0.28312737  0.26882644  0.79378102  1
  N  N93  1  0.24750634  0.12492739  0.45922152  1
  N  N94  1  0.26518692  0.28753912  0.21172767  1
  N  N95  1  0.24359559  0.31445473  0.42336383  1
  N  N96  1  0.26647756  0.71141899  0.79180373  1
  N  N97  1  0.12667466  0.75564657  0.46223513  1
  N  N98  1  0.28697899  0.73320585  0.21247869  1
  N  N99  1  0.31535428  0.75584949  0.42303700  1
  N  N100  1  0.73287740  0.20438699  0.20556671  1
  N  N101  1  0.87457442  0.25601495  0.53661112  1
  N  N102  1  0.71146583  0.24035230  0.78488763  1
  N  N103  1  0.68529737  0.25563904  0.57288760  1
  N  N104  1  0.78898737  0.73274795  0.21313518  1
  N  N105  1  0.74835803  0.87409512  0.54387203  1
  N  N106  1  0.77119924  0.71380722  0.79292877  1
  N  N107  1  0.74458491  0.68469889  0.58045519  1
