# generated using pymatgen
data_H12PbC6(IN)4
_symmetry_space_group_name_H-M   'P 1'
_cell_length_a   12.03533697
_cell_length_b   12.03532050
_cell_length_c   12.90647949
_cell_angle_alpha   93.88361652
_cell_angle_beta   93.88461870
_cell_angle_gamma   88.82037650
_symmetry_Int_Tables_number   1
_chemical_formula_structural   H12PbC6(IN)4
_chemical_formula_sum   'H48 Pb4 C24 I16 N16'
_cell_volume   1860.67383060
_cell_formula_units_Z   4
loop_
 _symmetry_equiv_pos_site_id
 _symmetry_equiv_pos_as_xyz
  1  'x, y, z'
loop_
 _atom_site_type_symbol
 _atom_site_label
 _atom_site_symmetry_multiplicity
 _atom_site_fract_x
 _atom_site_fract_y
 _atom_site_fract_z
 _atom_site_occupancy
  H  H0  1  0.24994267  0.24353337  0.85781146  1
  H  H1  1  0.31210504  0.32630351  0.77818300  1
  H  H2  1  0.17356348  0.32245296  0.77460786  1
  H  H3  1  0.17177701  0.12742656  0.71413544  1
  H  H4  1  0.31938301  0.12371668  0.72415984  1
  H  H5  1  0.25019429  0.04971195  0.51597481  1
  H  H6  1  0.32821106  0.37272663  0.28584879  1
  H  H7  1  0.18060320  0.37642965  0.27581539  1
  H  H8  1  0.32642370  0.17770544  0.22533514  1
  H  H9  1  0.18788821  0.17388052  0.22170147  1
  H  H10  1  0.25007915  0.25668312  0.14213807  1
  H  H11  1  0.24980150  0.45041228  0.48397177  1
  H  H12  1  0.24349300  0.74989107  0.85781393  1
  H  H13  1  0.32239665  0.67352520  0.77459068  1
  H  H14  1  0.32627550  0.81206165  0.77820286  1
  H  H15  1  0.12370203  0.81940668  0.72416374  1
  H  H16  1  0.12735024  0.67180088  0.71414025  1
  H  H17  1  0.04968102  0.75012211  0.51595965  1
  H  H18  1  0.37642582  0.68053998  0.27582769  1
  H  H19  1  0.37270823  0.82814865  0.28585346  1
  H  H20  1  0.17387626  0.68779687  0.22171459  1
  H  H21  1  0.17767985  0.82633536  0.22536522  1
  H  H22  1  0.25665782  0.75001330  0.14215236  1
  H  H23  1  0.45038744  0.74979559  0.48400570  1
  H  H24  1  0.75663137  0.25001837  0.14215830  1
  H  H25  1  0.67385235  0.18780595  0.22172552  1
  H  H26  1  0.67764407  0.32634751  0.22535533  1
  H  H27  1  0.87266255  0.32819388  0.28586416  1
  H  H28  1  0.87641809  0.18058609  0.27583050  1
  H  H29  1  0.95038376  0.24979000  0.48398822  1
  H  H30  1  0.62738662  0.17176169  0.71415017  1
  H  H31  1  0.62371381  0.31936733  0.72418171  1
  H  H32  1  0.82241932  0.17349977  0.77462133  1
  H  H33  1  0.82630752  0.31203850  0.77820345  1
  H  H34  1  0.74351953  0.24988932  0.85782661  1
  H  H35  1  0.54968126  0.25012902  0.51599619  1
  H  H36  1  0.75006330  0.75667094  0.14215619  1
  H  H37  1  0.82638685  0.67770099  0.22537498  1
  H  H38  1  0.68785213  0.67387926  0.22171351  1
  H  H39  1  0.68056718  0.87643151  0.27582489  1
  H  H40  1  0.82817508  0.87272891  0.28586349  1
  H  H41  1  0.74984391  0.95041256  0.48399080  1
  H  H42  1  0.81942818  0.62373143  0.72418155  1
  H  H43  1  0.67182317  0.62742225  0.71415878  1
  H  H44  1  0.81213188  0.82631816  0.77819882  1
  H  H45  1  0.67359198  0.82246301  0.77459258  1
  H  H46  1  0.74995324  0.74355862  0.85782562  1
  H  H47  1  0.75013097  0.54971471  0.51598511  1
  Pb  Pb48  1  0.00002699  0.99955270  0.00017065  1
  Pb  Pb49  1  0.99964648  0.49979952  0.00021310  1
  Pb  Pb50  1  0.49976000  0.99983207  0.00006154  1
  Pb  Pb51  1  0.49993341  0.49964594  0.99995624  1
  C  C52  1  0.24615054  0.17685583  0.70502480  1
  C  C53  1  0.24764418  0.21536184  0.59662501  1
  C  C54  1  0.25030704  0.13978267  0.50930965  1
  C  C55  1  0.25234226  0.28476448  0.40332996  1
  C  C56  1  0.25383620  0.32328900  0.29493996  1
  C  C57  1  0.24968010  0.36033587  0.49063998  1
  C  C58  1  0.17680978  0.74615400  0.70503064  1
  C  C59  1  0.21532179  0.74762626  0.59663123  1
  C  C60  1  0.13975719  0.75025130  0.50930642  1
  C  C61  1  0.28474835  0.75228294  0.40333533  1
  C  C62  1  0.32328225  0.75376673  0.29495007  1
  C  C63  1  0.36031841  0.74965941  0.49066380  1
  C  C64  1  0.82324968  0.25379816  0.29495660  1
  C  C65  1  0.78473059  0.25229530  0.40334555  1
  C  C66  1  0.86030977  0.24965706  0.49065610  1
  C  C67  1  0.71533661  0.24761357  0.59664072  1
  C  C68  1  0.67683736  0.24612369  0.70504281  1
  C  C69  1  0.63975541  0.25025360  0.50933079  1
  C  C70  1  0.75379997  0.82329628  0.29495131  1
  C  C71  1  0.75231178  0.78476882  0.40334080  1
  C  C72  1  0.74970174  0.86033873  0.49065972  1
  C  C73  1  0.74766295  0.71536179  0.59664161  1
  C  C74  1  0.74618561  0.67685453  0.70504611  1
  C  C75  1  0.75026835  0.63978265  0.50932104  1
  I  I76  1  0.24601014  0.07131929  0.96679916  1
  I  I77  1  0.25375566  0.42896340  0.03328646  1
  I  I78  1  0.75381318  0.92893945  0.03328781  1
  I  I79  1  0.74595868  0.57137774  0.96684123  1
  I  I80  1  0.92891209  0.25366369  0.03328408  1
  I  I81  1  0.07129739  0.74586034  0.96678995  1
  I  I82  1  0.57131287  0.24592153  0.96678429  1
  I  I83  1  0.42890545  0.75372042  0.03324346  1
  I  I84  1  0.94932878  0.00048547  0.75029577  1
  I  I85  1  0.05071457  0.99923182  0.25001579  1
  I  I86  1  0.00051144  0.44926762  0.75031075  1
  I  I87  1  0.99922652  0.55065244  0.25003336  1
  I  I88  1  0.50055491  0.94930922  0.75015715  1
  I  I89  1  0.49922685  0.05064343  0.24989195  1
  I  I90  1  0.44934205  0.50053163  0.75009097  1
  I  I91  1  0.55069315  0.49918641  0.24982467  1
  N  N92  1  0.24589364  0.27318224  0.78366248  1
  N  N93  1  0.25277340  0.17466276  0.41346953  1
  N  N94  1  0.25410621  0.22699364  0.21627356  1
  N  N95  1  0.24720532  0.32546189  0.58647934  1
  N  N96  1  0.27313692  0.74585673  0.78366793  1
  N  N97  1  0.17465150  0.75269598  0.41347043  1
  N  N98  1  0.22698029  0.75402833  0.21628577  1
  N  N99  1  0.32542085  0.74720629  0.58649628  1
  N  N100  1  0.72695168  0.25404026  0.21629169  1
  N  N101  1  0.82544081  0.24718900  0.58649545  1
  N  N102  1  0.77316455  0.24583829  0.78367954  1
  N  N103  1  0.67462638  0.25271065  0.41348816  1
  N  N104  1  0.75407440  0.72699116  0.21629321  1
  N  N105  1  0.74725342  0.82545903  0.58649235  1
  N  N106  1  0.74591985  0.77319604  0.78367034  1
  N  N107  1  0.75270881  0.67466843  0.41348459  1
