# generated using pymatgen
data_H8PbC4(IN)4
_symmetry_space_group_name_H-M   'P 1'
_cell_length_a   12.07018354
_cell_length_b   12.02368728
_cell_length_c   10.94252073
_cell_angle_alpha   92.83608587
_cell_angle_beta   92.29815609
_cell_angle_gamma   86.36013331
_symmetry_Int_Tables_number   1
_chemical_formula_structural   H8PbC4(IN)4
_chemical_formula_sum   'H32 Pb4 C16 I16 N16'
_cell_volume   1581.83424469
_cell_formula_units_Z   4
loop_
 _symmetry_equiv_pos_site_id
 _symmetry_equiv_pos_as_xyz
  1  'x, y, z'
loop_
 _atom_site_type_symbol
 _atom_site_label
 _atom_site_symmetry_multiplicity
 _atom_site_fract_x
 _atom_site_fract_y
 _atom_site_fract_z
 _atom_site_occupancy
  H  H0  1  0.26242700  0.25499122  0.82352671  1
  H  H1  1  0.18624176  0.33649469  0.72491963  1
  H  H2  1  0.32525566  0.33005562  0.72192370  1
  H  H3  1  0.32284436  0.12181643  0.66977938  1
  H  H4  1  0.17646308  0.14007764  0.66257870  1
  H  H5  1  0.26631077  0.42236889  0.34119770  1
  H  H6  1  0.26237803  0.27328728  0.19460055  1
  H  H7  1  0.25449983  0.08288797  0.24645133  1
  H  H8  1  0.25075490  0.74732939  0.82403291  1
  H  H9  1  0.33080950  0.80580462  0.72427098  1
  H  H10  1  0.32566395  0.66655370  0.72333891  1
  H  H11  1  0.12687661  0.67747742  0.66474995  1
  H  H12  1  0.12753186  0.82503788  0.67017393  1
  H  H13  1  0.42169500  0.74350125  0.34205327  1
  H  H14  1  0.27502159  0.74043531  0.19493962  1
  H  H15  1  0.08331116  0.73984872  0.24676928  1
  H  H16  1  0.74603571  0.24099632  0.17843983  1
  H  H17  1  0.66560013  0.32049279  0.27557292  1
  H  H18  1  0.66799937  0.18004598  0.27887339  1
  H  H19  1  0.87460350  0.17971331  0.33186403  1
  H  H20  1  0.85797939  0.32727640  0.34156310  1
  H  H21  1  0.57498993  0.22337263  0.66025762  1
  H  H22  1  0.72136333  0.23379947  0.80718157  1
  H  H23  1  0.91043521  0.25352297  0.75572955  1
  H  H24  1  0.75165681  0.74650444  0.17406277  1
  H  H25  1  0.68945060  0.67006151  0.27413108  1
  H  H26  1  0.82762987  0.66802218  0.27473306  1
  H  H27  1  0.82560481  0.86993378  0.33271985  1
  H  H28  1  0.67892006  0.87566447  0.32904273  1
  H  H29  1  0.75948949  0.58037128  0.65746389  1
  H  H30  1  0.76157539  0.72919845  0.80407013  1
  H  H31  1  0.75818699  0.92099423  0.75176263  1
  Pb  Pb32  1  0.01290958  0.00202060  0.00338056  1
  Pb  Pb33  1  0.00351111  0.48834750  0.00141046  1
  Pb  Pb34  1  0.50179114  0.98797088  0.99861502  1
  Pb  Pb35  1  0.51032604  0.49834794  0.99395581  1
  C  C36  1  0.25313370  0.18282983  0.64829068  1
  C  C37  1  0.25597586  0.21087027  0.51741595  1
  C  C38  1  0.26243891  0.33823195  0.37311719  1
  C  C39  1  0.25776949  0.14735837  0.31974889  1
  C  C40  1  0.17896441  0.74724195  0.64893181  1
  C  C41  1  0.20835336  0.74460444  0.51806062  1
  C  C42  1  0.33710988  0.74366357  0.37361735  1
  C  C43  1  0.14701122  0.74299425  0.32003853  1
  C  C44  1  0.81457145  0.25061037  0.35427451  1
  C  C45  1  0.78521783  0.24633114  0.48470264  1
  C  C46  1  0.65846729  0.23159892  0.62859010  1
  C  C47  1  0.84727612  0.24576472  0.68243153  1
  C  C48  1  0.75391910  0.82061378  0.34937020  1
  C  C49  1  0.75591737  0.79271047  0.48056785  1
  C  C50  1  0.75891771  0.66497062  0.62562643  1
  C  C51  1  0.75727812  0.85628112  0.67844342  1
  I  I52  1  0.24991397  0.10229894  0.98314444  1
  I  I53  1  0.26299819  0.44764517  0.05975207  1
  I  I54  1  0.75990099  0.93052641  0.02772342  1
  I  I55  1  0.75003910  0.58487558  0.95917849  1
  I  I56  1  0.89955998  0.25090210  0.02088823  1
  I  I57  1  0.06328072  0.74066070  0.96359297  1
  I  I58  1  0.55785525  0.23760226  0.95172347  1
  I  I59  1  0.40938433  0.75115812  0.03223722  1
  I  I60  1  0.99329132  0.00971544  0.71024896  1
  I  I61  1  0.02054418  0.99490442  0.29504686  1
  I  I62  1  0.02463434  0.47052452  0.70669310  1
  I  I63  1  0.97889349  0.51602371  0.29315657  1
  I  I64  1  0.48447209  0.94266327  0.70552432  1
  I  I65  1  0.51378829  0.03758667  0.29225042  1
  I  I66  1  0.45697844  0.49281010  0.70165826  1
  I  I67  1  0.55905191  0.50756523  0.29150338  1
  N  N68  1  0.25773193  0.28191713  0.73433086  1
  N  N69  1  0.26048438  0.31925066  0.49051283  1
  N  N70  1  0.26040541  0.25421787  0.28628715  1
  N  N71  1  0.25433769  0.12376949  0.43642733  1
  N  N72  1  0.27725549  0.74177903  0.73459093  1
  N  N73  1  0.31697066  0.74485999  0.49104088  1
  N  N74  1  0.25406898  0.74165210  0.28672923  1
  N  N75  1  0.12222870  0.74363179  0.43693171  1
  N  N76  1  0.71722155  0.24704639  0.26725397  1
  N  N77  1  0.67765934  0.23657633  0.51140621  1
  N  N78  1  0.74126778  0.23638189  0.71556041  1
  N  N79  1  0.87090319  0.25183573  0.56592241  1
  N  N80  1  0.75538863  0.72101127  0.26361480  1
  N  N81  1  0.75624579  0.68411502  0.50795410  1
  N  N82  1  0.76072622  0.74913471  0.71220155  1
  N  N83  1  0.75588672  0.88022268  0.56154919  1
