# generated using pymatgen
data_H13PbC7I4N3
_symmetry_space_group_name_H-M   'P 1'
_cell_length_a   12.82350791
_cell_length_b   12.78940708
_cell_length_c   12.01518602
_cell_angle_alpha   89.81022165
_cell_angle_beta   90.23848555
_cell_angle_gamma   89.70149617
_symmetry_Int_Tables_number   1
_chemical_formula_structural   H13PbC7I4N3
_chemical_formula_sum   'H52 Pb4 C28 I16 N12'
_cell_volume   1970.49657497
_cell_formula_units_Z   4
loop_
 _symmetry_equiv_pos_site_id
 _symmetry_equiv_pos_as_xyz
  1  'x, y, z'
loop_
 _atom_site_type_symbol
 _atom_site_label
 _atom_site_symmetry_multiplicity
 _atom_site_fract_x
 _atom_site_fract_y
 _atom_site_fract_z
 _atom_site_occupancy
  H  H0  1  0.14342668  0.19468626  0.78906246  1
  H  H1  1  0.23315576  0.13433231  0.86631452  1
  H  H2  1  0.25284108  0.25753707  0.83017490  1
  H  H3  1  0.36023784  0.13951830  0.72267719  1
  H  H4  1  0.24683963  0.06964422  0.68404730  1
  H  H5  1  0.26638648  0.36845541  0.67567566  1
  H  H6  1  0.24741151  0.46084647  0.49413576  1
  H  H7  1  0.24099201  0.35853439  0.31900437  1
  H  H8  1  0.19555104  0.07422920  0.32344946  1
  H  H9  1  0.33090465  0.09569197  0.30383352  1
  H  H10  1  0.29131386  0.23024338  0.16958657  1
  H  H11  1  0.22379019  0.12382636  0.14113226  1
  H  H12  1  0.16225180  0.22468771  0.19791439  1
  H  H13  1  0.19051366  0.85843781  0.78904042  1
  H  H14  1  0.13528312  0.76624577  0.86636110  1
  H  H15  1  0.25734759  0.74908513  0.82712119  1
  H  H16  1  0.13541895  0.64203774  0.72108482  1
  H  H17  1  0.06707063  0.75771761  0.68323153  1
  H  H18  1  0.36500542  0.73397313  0.67571537  1
  H  H19  1  0.45650701  0.75181570  0.49479664  1
  H  H20  1  0.35447041  0.75897718  0.31918470  1
  H  H21  1  0.07165115  0.80804005  0.32049497  1
  H  H22  1  0.09064962  0.67102262  0.30393723  1
  H  H23  1  0.22693467  0.70564549  0.17058969  1
  H  H24  1  0.12055751  0.77282055  0.13879076  1
  H  H25  1  0.22011936  0.83567507  0.19462265  1
  H  H26  1  0.82152072  0.37044659  0.21692089  1
  H  H27  1  0.85978396  0.27549528  0.13340642  1
  H  H28  1  0.73735871  0.27578158  0.17942050  1
  H  H29  1  0.85594010  0.14611791  0.27335755  1
  H  H30  1  0.93065372  0.25513477  0.31736840  1
  H  H31  1  0.63237671  0.24061025  0.32367789  1
  H  H32  1  0.54054515  0.26241963  0.50394049  1
  H  H33  1  0.64247717  0.27078557  0.67939431  1
  H  H34  1  0.92663977  0.30841751  0.67796165  1
  H  H35  1  0.90207622  0.17311356  0.70021188  1
  H  H36  1  0.76011157  0.22406257  0.82450972  1
  H  H37  1  0.87334139  0.27638874  0.86171908  1
  H  H38  1  0.78409997  0.35172670  0.80244208  1
  H  H39  1  0.62972667  0.82515675  0.21521542  1
  H  H40  1  0.72510727  0.86107926  0.13138554  1
  H  H41  1  0.72490556  0.73939020  0.18010916  1
  H  H42  1  0.85284178  0.85992411  0.27257313  1
  H  H43  1  0.74252572  0.93435854  0.31508071  1
  H  H44  1  0.75938808  0.63529501  0.32447796  1
  H  H45  1  0.73837306  0.54333881  0.50512061  1
  H  H46  1  0.73048972  0.64514560  0.68006748  1
  H  H47  1  0.69247197  0.93086994  0.67746931  1
  H  H48  1  0.82773158  0.90425970  0.69921277  1
  H  H49  1  0.77661733  0.76183037  0.82414099  1
  H  H50  1  0.72587113  0.87633227  0.86128939  1
  H  H51  1  0.64939733  0.78884346  0.80312400  1
  Pb  Pb52  1  0.99207669  0.00348906  0.98729472  1
  Pb  Pb53  1  0.00298090  0.51130062  0.00507940  1
  Pb  Pb54  1  0.49413737  0.00599149  0.00348320  1
  Pb  Pb55  1  0.50265821  0.50336800  0.00403191  1
  C  C56  1  0.27735961  0.14796257  0.70040926  1
  C  C57  1  0.26277387  0.21438961  0.59813579  1
  C  C58  1  0.25949800  0.32378493  0.59882320  1
  C  C59  1  0.25030512  0.37574196  0.49714474  1
  C  C60  1  0.24707221  0.31796924  0.39878073  1
  C  C61  1  0.25297987  0.20913152  0.40678332  1
  C  C62  1  0.25450891  0.13494450  0.31038668  1
  C  C63  1  0.14486814  0.72508634  0.69937531  1
  C  C64  1  0.21097191  0.73840327  0.59735479  1
  C  C65  1  0.32002722  0.74043188  0.59866339  1
  C  C66  1  0.37168194  0.74914934  0.49724603  1
  C  C67  1  0.31388775  0.75280234  0.39851830  1
  C  C68  1  0.20537682  0.74783553  0.40590720  1
  C  C69  1  0.13088007  0.74675991  0.30910976  1
  C  C70  1  0.85128298  0.22819288  0.29960464  1
  C  C71  1  0.78608661  0.24094724  0.40244802  1
  C  C72  1  0.67712375  0.24534380  0.40094728  1
  C  C73  1  0.62522573  0.25645291  0.50189483  1
  C  C74  1  0.68297358  0.26011088  0.60055192  1
  C  C75  1  0.79139332  0.25188024  0.59357148  1
  C  C76  1  0.86489601  0.25043309  0.69115676  1
  C  C77  1  0.77092552  0.85492071  0.29843346  1
  C  C78  1  0.75865898  0.78958941  0.40202509  1
  C  C79  1  0.75445810  0.68029216  0.40128564  1
  C  C80  1  0.74374992  0.62830824  0.50257853  1
  C  C81  1  0.74014502  0.68598591  0.60093722  1
  C  C82  1  0.74825356  0.79470671  0.59330117  1
  C  C83  1  0.75033857  0.86829853  0.69059479  1
  I  I84  1  0.24523069  0.96845142  0.00267918  1
  I  I85  1  0.24435621  0.57288245  0.00073938  1
  I  I86  1  0.74661931  0.04987439  0.99389912  1
  I  I87  1  0.74938511  0.46850757  0.99555763  1
  I  I88  1  0.02761282  0.25453666  0.00045701  1
  I  I89  1  0.94563270  0.75853795  0.99847102  1
  I  I90  1  0.42536694  0.25153708  0.00398133  1
  I  I91  1  0.53183555  0.75333677  0.99389917  1
  I  I92  1  0.02758895  0.99757977  0.72327731  1
  I  I93  1  0.01353985  0.00167978  0.24579143  1
  I  I94  1  0.98379155  0.49919566  0.74564682  1
  I  I95  1  0.98783221  0.48663806  0.27143294  1
  I  I96  1  0.49520447  0.97737613  0.74423569  1
  I  I97  1  0.50466408  0.97789762  0.26992189  1
  I  I98  1  0.50372083  0.49621407  0.73870060  1
  I  I99  1  0.51363014  0.50340489  0.26628891  1
  N  N100  1  0.22288133  0.18786825  0.80169599  1
  N  N101  1  0.23145872  0.18324523  0.19970587  1
  N  N102  1  0.25903340  0.15817140  0.50440954  1
  N  N103  1  0.18627315  0.77828524  0.80089880  1
  N  N104  1  0.17925057  0.76638961  0.19819299  1
  N  N105  1  0.15473183  0.74246785  0.50324422  1
  N  N106  1  0.81315863  0.29061819  0.20208229  1
  N  N107  1  0.81598164  0.27700326  0.79999813  1
  N  N108  1  0.84226674  0.24401286  0.49657502  1
  N  N109  1  0.70966689  0.81586318  0.20091414  1
  N  N110  1  0.72432195  0.81923222  0.79998875  1
  N  N111  1  0.75580771  0.84573183  0.49587950  1
