# generated using pymatgen
data_H11PbC5SI4N3
_symmetry_space_group_name_H-M   'P 1'
_cell_length_a   12.40250878
_cell_length_b   12.20681456
_cell_length_c   12.19791705
_cell_angle_alpha   88.69376115
_cell_angle_beta   88.54326055
_cell_angle_gamma   88.37124777
_symmetry_Int_Tables_number   1
_chemical_formula_structural   H11PbC5SI4N3
_chemical_formula_sum   'H44 Pb4 C20 S4 I16 N12'
_cell_volume   1844.91217796
_cell_formula_units_Z   4
loop_
 _symmetry_equiv_pos_site_id
 _symmetry_equiv_pos_as_xyz
  1  'x, y, z'
loop_
 _atom_site_type_symbol
 _atom_site_label
 _atom_site_symmetry_multiplicity
 _atom_site_fract_x
 _atom_site_fract_y
 _atom_site_fract_z
 _atom_site_occupancy
  H  H0  1  0.20774019  0.23371039  0.86751639  1
  H  H1  1  0.15561950  0.16869761  0.76258919  1
  H  H2  1  0.13829368  0.30659524  0.77305370  1
  H  H3  1  0.35527538  0.19703475  0.74659649  1
  H  H4  1  0.32390417  0.34085585  0.74253316  1
  H  H5  1  0.26253776  0.42991467  0.55105100  1
  H  H6  1  0.29121268  0.10744926  0.27568340  1
  H  H7  1  0.15139351  0.10547920  0.31226137  1
  H  H8  1  0.13381174  0.29725278  0.24320158  1
  H  H9  1  0.18105812  0.20681822  0.14744791  1
  H  H10  1  0.26232274  0.29431118  0.20404927  1
  H  H11  1  0.23390596  0.80072658  0.86584694  1
  H  H12  1  0.17532013  0.85900707  0.75672415  1
  H  H13  1  0.31026887  0.86584106  0.76922351  1
  H  H14  1  0.19783840  0.65244369  0.75605136  1
  H  H15  1  0.33936483  0.67308471  0.74841564  1
  H  H16  1  0.42766845  0.73767559  0.55676268  1
  H  H17  1  0.12091870  0.69343371  0.27579796  1
  H  H18  1  0.11289456  0.83736142  0.29510898  1
  H  H19  1  0.30709886  0.84287174  0.23797139  1
  H  H20  1  0.22471254  0.79603823  0.14073460  1
  H  H21  1  0.30661384  0.71133873  0.21147887  1
  H  H22  1  0.75995128  0.30726545  0.13504434  1
  H  H23  1  0.83470355  0.35287552  0.23640153  1
  H  H24  1  0.69990180  0.38078071  0.23528539  1
  H  H25  1  0.79651342  0.15339931  0.25123057  1
  H  H26  1  0.65667192  0.19058768  0.25844325  1
  H  H27  1  0.57197025  0.23905139  0.45252172  1
  H  H28  1  0.88722871  0.20508364  0.72845134  1
  H  H29  1  0.89470557  0.34588407  0.68999896  1
  H  H30  1  0.70161138  0.36745167  0.75542142  1
  H  H31  1  0.79222455  0.33050674  0.85247389  1
  H  H32  1  0.70863459  0.24031971  0.80549245  1
  H  H33  1  0.69216686  0.76386576  0.13281714  1
  H  H34  1  0.63311498  0.82183879  0.24207157  1
  H  H35  1  0.63481966  0.68341969  0.23154190  1
  H  H36  1  0.83625952  0.81209268  0.24068727  1
  H  H37  1  0.82550871  0.66655750  0.24747197  1
  H  H38  1  0.77248555  0.57226132  0.44066758  1
  H  H39  1  0.79392161  0.88313967  0.72455299  1
  H  H40  1  0.65361646  0.89323039  0.69721727  1
  H  H41  1  0.64050466  0.69741781  0.75724257  1
  H  H42  1  0.68523817  0.78182675  0.85477195  1
  H  H43  1  0.76874110  0.69504478  0.78893032  1
  Pb  Pb44  1  0.97847082  0.99509895  0.99436230  1
  Pb  Pb45  1  0.01509958  0.50041878  0.00083469  1
  Pb  Pb46  1  0.48465642  0.00858533  0.00370443  1
  Pb  Pb47  1  0.50792585  0.49574661  0.00186975  1
  C  C48  1  0.29606554  0.26011128  0.71963399  1
  C  C49  1  0.27837608  0.25696920  0.59968644  1
  C  C50  1  0.26201855  0.34426587  0.52800380  1
  C  C51  1  0.24431468  0.21099550  0.41137471  1
  C  C52  1  0.22207307  0.15821607  0.30555293  1
  C  C53  1  0.26040626  0.70777673  0.72454609  1
  C  C54  1  0.25753718  0.72269478  0.60318287  1
  C  C55  1  0.34397287  0.73738289  0.53202711  1
  C  C56  1  0.21487024  0.74858083  0.41086686  1
  C  C57  1  0.16719146  0.76423724  0.30018436  1
  C  C58  1  0.73740848  0.21550012  0.28086576  1
  C  C59  1  0.74187163  0.22910218  0.40151293  1
  C  C60  1  0.65634334  0.24035290  0.47482244  1
  C  C61  1  0.78779263  0.25518921  0.59146551  1
  C  C62  1  0.83980453  0.27648123  0.69749047  1
  C  C63  1  0.78691304  0.74448851  0.27263673  1
  C  C64  1  0.77355554  0.74609157  0.39420893  1
  C  C65  1  0.76688173  0.65738085  0.46553364  1
  C  C66  1  0.74538214  0.78803998  0.58673220  1
  C  C67  1  0.72499052  0.83715140  0.69663445  1
  S  S68  1  0.27106851  0.13544962  0.52955948  1
  S  S69  1  0.13937361  0.72624846  0.52982561  1
  S  S70  1  0.86169071  0.23563122  0.47098218  1
  S  S71  1  0.75985054  0.86603798  0.46747615  1
  I  I72  1  0.23081673  0.04635971  0.01582883  1
  I  I73  1  0.26606633  0.41925808  1.00216557  1
  I  I74  1  0.73452010  0.93294839  0.98861204  1
  I  I75  1  0.76402597  0.55760199  0.99251588  1
  I  I76  1  0.94771329  0.25133160  0.99039950  1
  I  I77  1  0.07202202  0.74908611  0.00793719  1
  I  I78  1  0.58553525  0.24509476  0.00481911  1
  I  I79  1  0.44508990  0.75051658  0.00067879  1
  I  I80  1  0.02268573  0.00289678  0.72517599  1
  I  I81  1  0.96591506  0.00351060  0.25405537  1
  I  I82  1  0.03902279  0.49537581  0.73837170  1
  I  I83  1  1.00027503  0.46777728  0.26722526  1
  I  I84  1  0.46122435  0.99197868  0.73906912  1
  I  I85  1  0.48825540  0.98083984  0.26645007  1
  I  I86  1  0.53234662  0.51168591  0.74056551  1
  I  I87  1  0.53830155  0.50708822  0.26931577  1
  N  N88  1  0.19269382  0.24038861  0.78449566  1
  N  N89  1  0.24325916  0.31795820  0.42190574  1
  N  N90  1  0.19793044  0.24424973  0.22053419  1
  N  N91  1  0.24404899  0.81489321  0.78222160  1
  N  N92  1  0.31965784  0.75182833  0.42397106  1
  N  N93  1  0.25671118  0.78006052  0.21763723  1
  N  N94  1  0.75997963  0.32067150  0.21850416  1
  N  N95  1  0.68255732  0.25480734  0.58170363  1
  N  N96  1  0.75562797  0.30568158  0.78204000  1
  N  N97  1  0.67992679  0.75404185  0.21675117  1
  N  N98  1  0.75140329  0.68144188  0.57379023  1
  N  N99  1  0.70305979  0.74771209  0.77884593  1
