# generated using pymatgen
data_H13PbC7I4N3
_symmetry_space_group_name_H-M   'P 1'
_cell_length_a   12.71786597
_cell_length_b   12.78082087
_cell_length_c   11.76124070
_cell_angle_alpha   91.61316957
_cell_angle_beta   90.74879472
_cell_angle_gamma   88.79188115
_symmetry_Int_Tables_number   1
_chemical_formula_structural   H13PbC7I4N3
_chemical_formula_sum   'H52 Pb4 C28 I16 N12'
_cell_volume   1910.39680201
_cell_formula_units_Z   4
loop_
 _symmetry_equiv_pos_site_id
 _symmetry_equiv_pos_as_xyz
  1  'x, y, z'
loop_
 _atom_site_type_symbol
 _atom_site_label
 _atom_site_symmetry_multiplicity
 _atom_site_fract_x
 _atom_site_fract_y
 _atom_site_fract_z
 _atom_site_occupancy
  H  H0  1  0.35528779  0.34199037  0.77398264  1
  H  H1  1  0.33095051  0.21464527  0.79555593  1
  H  H2  1  0.27877553  0.30862662  0.88145902  1
  H  H3  1  0.13968288  0.25523416  0.76230569  1
  H  H4  1  0.17755393  0.38359947  0.72754913  1
  H  H5  1  0.22748002  0.09857296  0.64592319  1
  H  H6  1  0.26884697  0.03993521  0.44573288  1
  H  H7  1  0.18286385  0.40693808  0.29013962  1
  H  H8  1  0.32082682  0.41668138  0.31476400  1
  H  H9  1  0.21523938  0.28884480  0.14537924  1
  H  H10  1  0.28833120  0.21651138  0.23779367  1
  H  H11  1  0.34456350  0.31189466  0.15995216  1
  H  H12  1  0.21850600  0.41740131  0.53127520  1
  H  H13  1  0.33489601  0.62933379  0.76700176  1
  H  H14  1  0.20847233  0.66604559  0.78735953  1
  H  H15  1  0.30245221  0.70527961  0.87944701  1
  H  H16  1  0.26420652  0.85377291  0.77161211  1
  H  H17  1  0.38998526  0.80221627  0.73358925  1
  H  H18  1  0.10218129  0.77613066  0.65110280  1
  H  H19  1  0.04347813  0.74284030  0.44949955  1
  H  H20  1  0.41278678  0.81924502  0.29487621  1
  H  H21  1  0.42069991  0.68036925  0.30617234  1
  H  H22  1  0.29283839  0.80018950  0.14984920  1
  H  H23  1  0.22054382  0.72620140  0.23630415  1
  H  H24  1  0.31508450  0.66941318  0.15103571  1
  H  H25  1  0.42259495  0.77483866  0.53134668  1
  H  H26  1  0.65902865  0.11788952  0.23238523  1
  H  H27  1  0.78851469  0.13815676  0.21737719  1
  H  H28  1  0.70001861  0.18186453  0.12029221  1
  H  H29  1  0.73899590  0.33537475  0.22617299  1
  H  H30  1  0.61305005  0.29364981  0.26673643  1
  H  H31  1  0.90120674  0.26633447  0.34510868  1
  H  H32  1  0.96381256  0.23820371  0.54522498  1
  H  H33  1  0.59482346  0.31152025  0.71105623  1
  H  H34  1  0.58811119  0.17411404  0.68659965  1
  H  H35  1  0.71428284  0.28384589  0.85303466  1
  H  H36  1  0.78920810  0.21355886  0.75922608  1
  H  H37  1  0.69688394  0.15370721  0.83845455  1
  H  H38  1  0.58235389  0.26509982  0.46898923  1
  H  H39  1  0.87568629  0.66429432  0.23252206  1
  H  H40  1  0.83857594  0.79223148  0.21992067  1
  H  H41  1  0.80167183  0.70264307  0.12295925  1
  H  H42  1  0.64991612  0.73188578  0.23355218  1
  H  H43  1  0.70548600  0.60786132  0.26825118  1
  H  H44  1  0.72936077  0.89426873  0.35403958  1
  H  H45  1  0.76487469  0.95439039  0.55490026  1
  H  H46  1  0.68916747  0.59050262  0.71344663  1
  H  H47  1  0.82812108  0.57967916  0.69334271  1
  H  H48  1  0.71799919  0.70878920  0.85757906  1
  H  H49  1  0.78490026  0.78160220  0.76474843  1
  H  H50  1  0.84924599  0.68991464  0.84490430  1
  H  H51  1  0.73155857  0.57614373  0.47131404  1
  Pb  Pb52  1  0.00384742  0.99875568  -0.00122567  1
  Pb  Pb53  1  0.01496170  0.49599995  0.00336146  1
  Pb  Pb54  1  0.49926400  0.98919833  0.00224879  1
  Pb  Pb55  1  0.51990343  0.49106145  0.99405873  1
  C  C56  1  0.20151540  0.30060057  0.72349347  1
  C  C57  1  0.22253657  0.26299752  0.60385574  1
  C  C58  1  0.23505921  0.15555038  0.57947370  1
  C  C59  1  0.25640224  0.12252866  0.46838189  1
  C  C60  1  0.24840187  0.29253512  0.40617267  1
  C  C61  1  0.25602924  0.36145915  0.30424718  1
  C  C62  1  0.22896537  0.33327602  0.51548715  1
  C  C63  1  0.30540229  0.78809262  0.72796824  1
  C  C64  1  0.26770589  0.77467464  0.60695630  1
  C  C65  1  0.15968395  0.76798361  0.58341493  1
  C  C66  1  0.12648700  0.75130935  0.47142961  1
  C  C67  1  0.29709761  0.75473313  0.40660182  1
  C  C68  1  0.36621202  0.74829739  0.30283298  1
  C  C69  1  0.33801018  0.76854409  0.51668603  1
  C  C70  1  0.69737798  0.27465269  0.27092984  1
  C  C71  1  0.73650552  0.26615794  0.39162373  1
  C  C72  1  0.84503793  0.26045246  0.41366989  1
  C  C73  1  0.88025020  0.24620685  0.52462342  1
  C  C74  1  0.71017341  0.24829178  0.59158375  1
  C  C75  1  0.64248474  0.23989471  0.69554745  1
  C  C76  1  0.66738993  0.26077607  0.48251484  1
  C  C77  1  0.71689498  0.69253439  0.27550409  1
  C  C78  1  0.72954769  0.72999162  0.39717678  1
  C  C79  1  0.73671003  0.83757613  0.42127454  1
  C  C80  1  0.75485010  0.87173400  0.53289866  1
  C  C81  1  0.75186848  0.70232882  0.59672398  1
  C  C82  1  0.76088447  0.63494736  0.70068454  1
  C  C83  1  0.73682749  0.66049198  0.48675411  1
  I  I84  1  0.25479744  0.94613683  0.02271495  1
  I  I85  1  0.26678290  0.51402317  0.01464256  1
  I  I86  1  0.74691150  0.99605282  0.95852502  1
  I  I87  1  0.76608545  0.44715540  0.97757791  1
  I  I88  1  0.06960108  0.25007614  0.00631032  1
  I  I89  1  0.99425248  0.74801230  1.00217378  1
  I  I90  1  0.49365028  0.24298033  0.00951090  1
  I  I91  1  0.54637609  0.73609241  0.97814098  1
  I  I92  1  0.01073050  0.00516505  0.73738924  1
  I  I93  1  0.93130269  -0.00148004  0.26717217  1
  I  I94  1  0.03958735  0.54535217  0.73484990  1
  I  I95  1  0.98339887  0.51083765  0.27516782  1
  I  I96  1  0.45878275  0.02391004  0.73951632  1
  I  I97  1  0.51433653  0.00986986  0.28047601  1
  I  I98  1  0.46669638  0.49242350  0.70876962  1
  I  I99  1  0.51217767  0.49438857  0.25986469  1
  N  N100  1  0.29776791  0.28960117  0.79807964  1
  N  N101  1  0.26290092  0.19000032  0.38369216  1
  N  N102  1  0.27807057  0.29192580  0.20317164  1
  N  N103  1  0.28565639  0.69189720  0.79437093  1
  N  N104  1  0.19410168  0.74462497  0.38495611  1
  N  N105  1  0.29629005  0.73475121  0.20118654  1
  N  N106  1  0.71385261  0.17304890  0.20612797  1
  N  N107  1  0.81385924  0.24015684  0.61163232  1
  N  N108  1  0.71334316  0.22117809  0.79519083  1
  N  N109  1  0.81329556  0.71563949  0.20905714  1
  N  N110  1  0.76204002  0.80500937  0.61857602  1
  N  N111  1  0.77990981  0.70642841  0.80105475  1
