# generated using pymatgen
data_H13PbC6I4N3
_symmetry_space_group_name_H-M   'P 1'
_cell_length_a   12.59207185
_cell_length_b   12.56466649
_cell_length_c   11.65856569
_cell_angle_alpha   89.30391831
_cell_angle_beta   89.36262125
_cell_angle_gamma   89.83759326
_symmetry_Int_Tables_number   1
_chemical_formula_structural   H13PbC6I4N3
_chemical_formula_sum   'H52 Pb4 C24 I16 N12'
_cell_volume   1844.30513731
_cell_formula_units_Z   4
loop_
 _symmetry_equiv_pos_site_id
 _symmetry_equiv_pos_as_xyz
  1  'x, y, z'
loop_
 _atom_site_type_symbol
 _atom_site_label
 _atom_site_symmetry_multiplicity
 _atom_site_fract_x
 _atom_site_fract_y
 _atom_site_fract_z
 _atom_site_occupancy
  H  H0  1  0.24733134  0.33118854  0.86738652  1
  H  H1  1  0.20702624  0.21540202  0.81307619  1
  H  H2  1  0.15183870  0.33074771  0.77012474  1
  H  H3  1  0.37893064  0.26951046  0.73216577  1
  H  H4  1  0.31977607  0.39154588  0.68960874  1
  H  H5  1  0.29200401  0.08194520  0.61469676  1
  H  H6  1  0.21099255  0.07169518  0.41775760  1
  H  H7  1  0.10252231  0.31595933  0.28970069  1
  H  H8  1  0.13417171  0.18088736  0.25804233  1
  H  H9  1  0.28076078  0.36721355  0.23506870  1
  H  H10  1  0.31201121  0.24319877  0.19790403  1
  H  H11  1  0.21457519  0.30765348  0.12971932  1
  H  H12  1  0.22189325  0.40115542  0.48348758  1
  H  H13  1  0.33800049  0.74496980  0.86474937  1
  H  H14  1  0.21989919  0.78220316  0.81529567  1
  H  H15  1  0.32916713  0.84362290  0.76882187  1
  H  H16  1  0.27433482  0.61653182  0.72974193  1
  H  H17  1  0.39517209  0.67663977  0.68547201  1
  H  H18  1  0.08438742  0.71019163  0.61783591  1
  H  H19  1  0.07149387  0.78782661  0.41722486  1
  H  H20  1  0.31530560  0.88671654  0.27665289  1
  H  H21  1  0.17831911  0.86016375  0.25181714  1
  H  H22  1  0.35540841  0.70138250  0.23452361  1
  H  H23  1  0.22707876  0.67687930  0.20872329  1
  H  H24  1  0.29535425  0.76576801  0.12615256  1
  H  H25  1  0.40120076  0.77384812  0.47721330  1
  H  H26  1  0.66531208  0.24142138  0.13455710  1
  H  H27  1  0.78445362  0.27482889  0.18223801  1
  H  H28  1  0.67686751  0.34200738  0.22603460  1
  H  H29  1  0.72362969  0.11361374  0.27443873  1
  H  H30  1  0.60512107  0.17911097  0.31593030  1
  H  H31  1  0.91672169  0.20043393  0.38424199  1
  H  H32  1  0.93133176  0.27184943  0.58508570  1
  H  H33  1  0.68958851  0.37993844  0.72187269  1
  H  H34  1  0.82520156  0.34906310  0.74918088  1
  H  H35  1  0.64952616  0.18705675  0.75933588  1
  H  H36  1  0.77346491  0.17123994  0.80485442  1
  H  H37  1  0.69204326  0.25616276  0.87132397  1
  H  H38  1  0.60160031  0.27367023  0.52242615  1
  H  H39  1  0.75529300  0.67440718  0.12778774  1
  H  H40  1  0.71461908  0.78752090  0.18845651  1
  H  H41  1  0.65737046  0.67173346  0.22622346  1
  H  H42  1  0.88469323  0.72611890  0.26352433  1
  H  H43  1  0.82240645  0.60510194  0.30528156  1
  H  H44  1  0.79865963  0.91501321  0.38137371  1
  H  H45  1  0.72162531  0.92747685  0.58161334  1
  H  H46  1  0.61069733  0.68409783  0.71428301  1
  H  H47  1  0.64044196  0.82002638  0.74291094  1
  H  H48  1  0.79705527  0.64065506  0.75801350  1
  H  H49  1  0.81690541  0.76395374  0.80254661  1
  H  H50  1  0.72603420  0.68834433  0.86776182  1
  H  H51  1  0.72398983  0.59767676  0.51567783  1
  Pb  Pb52  1  0.99732788  0.00721571  0.99536413  1
  Pb  Pb53  1  0.01216085  0.51166337  0.00287748  1
  Pb  Pb54  1  0.49954078  -0.00027764  0.00608600  1
  Pb  Pb55  1  0.50850504  0.50039227  0.00683495  1
  C  C56  1  0.30589631  0.30584106  0.69899396  1
  C  C57  1  0.27044648  0.25866021  0.58984740  1
  C  C58  1  0.26795300  0.15079174  0.56418480  1
  C  C59  1  0.20608142  0.24078067  0.41066620  1
  C  C60  1  0.16517703  0.25514001  0.29326307  1
  C  C61  1  0.23078547  0.31540518  0.49285899  1
  C  C62  1  0.30972860  0.69044657  0.69604430  1
  C  C63  1  0.26063878  0.72892872  0.58839180  1
  C  C64  1  0.15237018  0.73341289  0.56536457  1
  C  C65  1  0.23978825  0.79217183  0.40749974  1
  C  C66  1  0.25213793  0.82703841  0.28661839  1
  C  C67  1  0.31571776  0.76701871  0.48888875  1
  C  C68  1  0.69103961  0.18928794  0.30523800  1
  C  C69  1  0.74111304  0.22633176  0.41214137  1
  C  C70  1  0.84937656  0.22657936  0.43570794  1
  C  C71  1  0.76328646  0.28482726  0.59321233  1
  C  C72  1  0.75116982  0.31829277  0.71371139  1
  C  C73  1  0.68694281  0.26417526  0.51147258  1
  C  C74  1  0.81068026  0.69133885  0.29740136  1
  C  C75  1  0.77525506  0.73862949  0.40764701  1
  C  C76  1  0.77392961  0.84675261  0.43284330  1
  C  C77  1  0.71147309  0.75870753  0.58845971  1
  C  C78  1  0.67223778  0.74575119  0.70751661  1
  C  C79  1  0.73485938  0.68311218  0.50598565  1
  I  I80  1  0.24931018  0.95744351  0.99674692  1
  I  I81  1  0.26169479  0.52865907  0.97547112  1
  I  I82  1  0.74830473  0.03611360  0.02165911  1
  I  I83  1  0.75990127  0.46950419  0.00679547  1
  I  I84  1  0.03373890  0.25859094  0.01635926  1
  I  I85  1  0.95754116  0.75658994  0.98504035  1
  I  I86  1  0.46847650  0.25007483  0.01744916  1
  I  I87  1  0.53336948  0.74901909  0.98803614  1
  I  I88  1  0.97691115  0.02748004  0.72707369  1
  I  I89  1  0.00091113  0.99309817  0.27673531  1
  I  I90  1  0.01316103  0.48710096  0.72515997  1
  I  I91  1  0.06968619  0.54076344  0.26853190  1
  I  I92  1  0.51280452  0.01874326  0.72338992  1
  I  I93  1  0.50832332  0.96750071  0.27311112  1
  I  I94  1  0.52186321  0.49229863  0.73654926  1
  I  I95  1  0.50859504  0.51665969  0.28434091  1
  N  N96  1  0.22296598  0.29383262  0.79345541  1
  N  N97  1  0.22953003  0.14143195  0.45604877  1
  N  N98  1  0.24957941  0.29561852  0.20926969  1
  N  N99  1  0.29811113  0.77026452  0.79196750  1
  N  N100  1  0.14150869  0.77175254  0.45652038  1
  N  N101  1  0.28490366  0.73624269  0.20882180  1
  N  N102  1  0.70581703  0.26727021  0.20603271  1
  N  N103  1  0.86102409  0.26228849  0.54459435  1
  N  N104  1  0.71452341  0.22758475  0.79195557  1
  N  N105  1  0.72910252  0.70785836  0.20378296  1
  N  N106  1  0.73582454  0.85724383  0.54172731  1
  N  N107  1  0.75883208  0.70764163  0.78831403  1
