# generated using pymatgen
data_H12PbC6S(I2N)2
_symmetry_space_group_name_H-M   'P 1'
_cell_length_a   12.63880160
_cell_length_b   12.61749494
_cell_length_c   11.70900145
_cell_angle_alpha   91.58681056
_cell_angle_beta   91.38489146
_cell_angle_gamma   89.34112818
_symmetry_Int_Tables_number   1
_chemical_formula_structural   H12PbC6S(I2N)2
_chemical_formula_sum   'H48 Pb4 C24 S4 I16 N8'
_cell_volume   1865.86379199
_cell_formula_units_Z   4
loop_
 _symmetry_equiv_pos_site_id
 _symmetry_equiv_pos_as_xyz
  1  'x, y, z'
loop_
 _atom_site_type_symbol
 _atom_site_label
 _atom_site_symmetry_multiplicity
 _atom_site_fract_x
 _atom_site_fract_y
 _atom_site_fract_z
 _atom_site_occupancy
  H  H0  1  0.26458572  0.30357428  0.87141493  1
  H  H1  1  0.31859992  0.19863261  0.79891473  1
  H  H2  1  0.33837030  0.32341633  0.75924099  1
  H  H3  1  0.14938863  0.34749876  0.71548269  1
  H  H4  1  0.12959921  0.21305195  0.75359934  1
  H  H5  1  0.19877427  0.05692707  0.61326177  1
  H  H6  1  0.31704601  0.37315971  0.31063710  1
  H  H7  1  0.37382997  0.25029383  0.26501091  1
  H  H8  1  0.21397988  0.19841348  0.17364325  1
  H  H9  1  0.14353376  0.29915094  0.23638326  1
  H  H10  1  0.23315283  0.32549821  0.13961774  1
  H  H11  1  0.24121797  0.38472164  0.51417981  1
  H  H12  1  0.29186525  0.72171744  0.86858384  1
  H  H13  1  0.19032060  0.67277110  0.78530695  1
  H  H14  1  0.31676566  0.64635601  0.75389699  1
  H  H15  1  0.35127445  0.83280422  0.72084766  1
  H  H16  1  0.21884425  0.86383644  0.75839717  1
  H  H17  1  0.05970703  0.80135622  0.61597367  1
  H  H18  1  0.37253693  0.69435851  0.29608563  1
  H  H19  1  0.25513297  0.62644363  0.25567487  1
  H  H20  1  0.18450682  0.77577361  0.16449339  1
  H  H21  1  0.27307298  0.85916686  0.22603238  1
  H  H22  1  0.31251867  0.76929278  0.12903390  1
  H  H23  1  0.38529326  0.75355176  0.50737845  1
  H  H24  1  0.70872543  0.22569014  0.12712025  1
  H  H25  1  0.80566904  0.16870417  0.20838915  1
  H  H26  1  0.67707655  0.15190692  0.23644095  1
  H  H27  1  0.65217209  0.33864784  0.28280859  1
  H  H28  1  0.78611536  0.36197496  0.24780497  1
  H  H29  1  0.94118906  0.29599630  0.38903912  1
  H  H30  1  0.62383667  0.17540101  0.68832745  1
  H  H31  1  0.74455168  0.11352087  0.73074965  1
  H  H32  1  0.79857633  0.26604046  0.83554555  1
  H  H33  1  0.70581356  0.34370381  0.77310270  1
  H  H34  1  0.66967450  0.25207025  0.86334791  1
  H  H35  1  0.61412087  0.24851300  0.48614328  1
  H  H36  1  0.78080388  0.69694735  0.13001000  1
  H  H37  1  0.82933161  0.80305868  0.20437194  1
  H  H38  1  0.85705447  0.67917593  0.24472634  1
  H  H39  1  0.66859967  0.64866623  0.28007068  1
  H  H40  1  0.64242965  0.78219807  0.24189152  1
  H  H41  1  0.71461721  0.94026279  0.38206196  1
  H  H42  1  0.81665301  0.62596836  0.70124358  1
  H  H43  1  0.88161634  0.74447122  0.74440279  1
  H  H44  1  0.72773210  0.81328446  0.83016992  1
  H  H45  1  0.64918917  0.72076460  0.76575104  1
  H  H46  1  0.73686312  0.68482846  0.86645878  1
  H  H47  1  0.75057024  0.61305328  0.49094296  1
  Pb  Pb48  1  0.00264382  0.00519636  0.00853398  1
  Pb  Pb49  1  0.00726493  0.50123584  0.99165402  1
  Pb  Pb50  1  0.50301723  1.00501893  0.99569823  1
  Pb  Pb51  1  0.50385011  0.50373501  1.00508023  1
  C  C52  1  0.18442018  0.26732637  0.71410572  1
  C  C53  1  0.21235816  0.23061535  0.59615981  1
  C  C54  1  0.21788094  0.12480635  0.56276457  1
  C  C55  1  0.26956649  0.24274783  0.40891914  1
  C  C56  1  0.30202777  0.28798123  0.29950913  1
  C  C57  1  0.24133109  0.29833965  0.50689583  1
  C  C58  1  0.26958323  0.80429021  0.71572745  1
  C  C59  1  0.23265932  0.78249540  0.59519869  1
  C  C60  1  0.12676617  0.78176688  0.56277177  1
  C  C61  1  0.24242126  0.73504186  0.40154634  1
  C  C62  1  0.28615343  0.70255916  0.28913486  1
  C  C63  1  0.29907637  0.75653221  0.50166941  1
  C  C64  1  0.73281870  0.30533955  0.28595245  1
  C  C65  1  0.76807314  0.27963863  0.40495106  1
  C  C66  1  0.87336015  0.27633669  0.43930148  1
  C  C67  1  0.75531176  0.22418606  0.59276926  1
  C  C68  1  0.70926969  0.18790240  0.70028185  1
  C  C69  1  0.70022804  0.25057291  0.49407078  1
  C  C70  1  0.70019318  0.72946584  0.28390759  1
  C  C71  1  0.72599912  0.76647692  0.40343232  1
  C  C72  1  0.73157428  0.87258274  0.43518791  1
  C  C73  1  0.77676444  0.75611514  0.59576913  1
  C  C74  1  0.80705619  0.71235844  0.70853156  1
  C  C75  1  0.75128841  0.69947906  0.49648735  1
  S  S76  1  0.26023613  0.10744784  0.42679208  1
  S  S77  1  0.10776359  0.74723814  0.42266320  1
  S  S78  1  0.89042238  0.23548005  0.57576701  1
  S  S79  1  0.76976094  0.89125183  0.57421041  1
  I  I80  1  0.25105263  0.03758968  0.04454826  1
  I  I81  1  0.25553565  0.47919551  0.01349147  1
  I  I82  1  0.74793961  0.97334288  0.95929647  1
  I  I83  1  0.75363952  0.52714682  0.98664645  1
  I  I84  1  0.95382876  0.25479487  0.98370835  1
  I  I85  1  0.02730681  0.75287494  0.02904802  1
  I  I86  1  0.52165835  0.25581108  0.00234874  1
  I  I87  1  0.47196057  0.75442565  -0.00093146  1
  I  I88  1  0.00983659  0.99357086  0.74443912  1
  I  I89  1  0.94637889  0.01761309  0.27335750  1
  I  I90  1  0.04137935  0.53794235  0.72616742  1
  I  I91  1  0.00374038  0.49453059  0.26500402  1
  I  I92  1  0.45884488  0.03068450  0.73110528  1
  I  I93  1  0.52534079  0.02769735  0.27002849  1
  I  I94  1  0.47239933  0.49696961  0.72212182  1
  I  I95  1  0.50549856  0.50454820  0.27222268  1
  N  N96  1  0.28259752  0.27269570  0.79120982  1
  N  N97  1  0.21694878  0.27599817  0.20693309  1
  N  N98  1  0.26604082  0.70532672  0.78552457  1
  N  N99  1  0.26200316  0.78203760  0.19737514  1
  N  N100  1  0.73215126  0.20704450  0.20933422  1
  N  N101  1  0.72253806  0.26774557  0.79863658  1
  N  N102  1  0.79804200  0.72800451  0.21125127  1
  N  N103  1  0.72441518  0.73511475  0.79767558  1
