# generated using pymatgen
data_H12PbC6I4N2O
_symmetry_space_group_name_H-M   'P 1'
_cell_length_a   12.49753821
_cell_length_b   12.54174107
_cell_length_c   11.63459068
_cell_angle_alpha   91.96479460
_cell_angle_beta   90.38624711
_cell_angle_gamma   89.12032573
_symmetry_Int_Tables_number   1
_chemical_formula_structural   H12PbC6I4N2O
_chemical_formula_sum   'H48 Pb4 C24 I16 N8 O4'
_cell_volume   1822.29389591
_cell_formula_units_Z   4
loop_
 _symmetry_equiv_pos_site_id
 _symmetry_equiv_pos_as_xyz
  1  'x, y, z'
loop_
 _atom_site_type_symbol
 _atom_site_label
 _atom_site_symmetry_multiplicity
 _atom_site_fract_x
 _atom_site_fract_y
 _atom_site_fract_z
 _atom_site_occupancy
  H  H0  1  0.33325410  0.19143403  0.77271215  1
  H  H1  1  0.32567139  0.32505764  0.76129627  1
  H  H2  1  0.26705963  0.26726736  0.87068383  1
  H  H3  1  0.13108726  0.31668410  0.73418635  1
  H  H4  1  0.14019344  0.17450969  0.74376906  1
  H  H5  1  0.22447508  0.06004545  0.54637183  1
  H  H6  1  0.24279082  0.39632412  0.28254235  1
  H  H7  1  0.36961571  0.33273379  0.29767286  1
  H  H8  1  0.28256238  0.16666003  0.21825690  1
  H  H9  1  0.30241210  0.26449374  0.12877893  1
  H  H10  1  0.17821529  0.24274251  0.17712147  1
  H  H11  1  0.20821279  0.40723289  0.53300683  1
  H  H12  1  0.19074276  0.65904778  0.77707937  1
  H  H13  1  0.32296385  0.65902150  0.75686949  1
  H  H14  1  0.27311305  0.72203948  0.87283072  1
  H  H15  1  0.31628341  0.85851362  0.74543376  1
  H  H16  1  0.17436529  0.85031519  0.75620308  1
  H  H17  1  0.06220746  0.77919540  0.55717018  1
  H  H18  1  0.39402135  0.76191324  0.27590953  1
  H  H19  1  0.33832596  0.63402151  0.28889000  1
  H  H20  1  0.16426177  0.71540206  0.22667845  1
  H  H21  1  0.26064680  0.70013579  0.12943593  1
  H  H22  1  0.23293669  0.82315609  0.18510156  1
  H  H23  1  0.41034603  0.78260556  0.53367528  1
  H  H24  1  0.80925318  0.14916662  0.23090442  1
  H  H25  1  0.67568579  0.16421036  0.23662930  1
  H  H26  1  0.74402277  0.21482544  0.12853799  1
  H  H27  1  0.69090435  0.35834460  0.26247360  1
  H  H28  1  0.83282840  0.34422926  0.25214034  1
  H  H29  1  0.94307069  0.27689955  0.44963531  1
  H  H30  1  0.60901563  0.26233203  0.72571891  1
  H  H31  1  0.66330222  0.13242838  0.69968104  1
  H  H32  1  0.83822923  0.20632055  0.76902586  1
  H  H33  1  0.74383287  0.18853918  0.86548437  1
  H  H34  1  0.76916467  0.31397423  0.82418463  1
  H  H35  1  0.59445702  0.28196892  0.46812012  1
  H  H36  1  0.83519061  0.81886281  0.22924504  1
  H  H37  1  0.84152096  0.68525280  0.23979442  1
  H  H38  1  0.77999269  0.73914827  0.12766274  1
  H  H39  1  0.64332068  0.68118329  0.25645386  1
  H  H40  1  0.64259851  0.82378389  0.25011569  1
  H  H41  1  0.72278898  0.93886597  0.44702907  1
  H  H42  1  0.74342449  0.60799410  0.71883847  1
  H  H43  1  0.86960605  0.66908993  0.70691474  1
  H  H44  1  0.78352434  0.83823037  0.77628710  1
  H  H45  1  0.79303213  0.74250630  0.87072647  1
  H  H46  1  0.67356641  0.77118466  0.80943697  1
  H  H47  1  0.71441929  0.59206925  0.46434509  1
  Pb  Pb48  1  -0.00386898  1.00296716  1.00134917  1
  Pb  Pb49  1  0.01113510  0.50367927  0.00038568  1
  Pb  Pb50  1  0.49372119  1.00015566  0.00385475  1
  Pb  Pb51  1  0.51149488  0.49682236  0.99385004  1
  C  C52  1  0.18078089  0.24549355  0.71419803  1
  C  C53  1  0.20593108  0.23630148  0.58952951  1
  C  C54  1  0.22625779  0.14389104  0.52682264  1
  C  C55  1  0.24693208  0.27652491  0.40914328  1
  C  C56  1  0.28261671  0.31971171  0.29903730  1
  C  C57  1  0.21864281  0.32259961  0.51251790  1
  C  C58  1  0.24667767  0.80931334  0.72307757  1
  C  C59  1  0.23888561  0.78812468  0.59665835  1
  C  C60  1  0.14620805  0.77417342  0.53503690  1
  C  C61  1  0.27884517  0.75318778  0.41144504  1
  C  C62  1  0.32018982  0.72030822  0.29600407  1
  C  C63  1  0.32535497  0.77541506  0.51576014  1
  C  C64  1  0.76001049  0.30709115  0.28320879  1
  C  C65  1  0.76660986  0.28772670  0.40849416  1
  C  C66  1  0.85883611  0.27293293  0.47023881  1
  C  C67  1  0.72504738  0.25198698  0.59016344  1
  C  C68  1  0.68247696  0.21793108  0.70187835  1
  C  C69  1  0.67938961  0.27507238  0.48699554  1
  C  C70  1  0.68748971  0.75390636  0.27993902  1
  C  C71  1  0.70917065  0.76257280  0.40570249  1
  C  C72  1  0.72636030  0.85537570  0.46796756  1
  C  C73  1  0.74891434  0.72374639  0.58759034  1
  C  C74  1  0.78239952  0.68327159  0.70063993  1
  C  C75  1  0.72307782  0.67682504  0.48388965  1
  I  I76  1  0.24329676  0.98554412  0.05544296  1
  I  I77  1  0.25858548  0.50213333  0.03491987  1
  I  I78  1  0.74090271  0.01250210  0.97299621  1
  I  I79  1  0.75907820  0.48797688  0.94586459  1
  I  I80  1  0.00582773  0.25437918  0.04464974  1
  I  I81  1  0.97755515  0.75314825  0.98455444  1
  I  I82  1  0.48058018  0.25005997  0.00168995  1
  I  I83  1  0.49082019  0.74793419  -0.00597090  1
  I  I84  1  0.97558813  0.00481734  0.72806936  1
  I  I85  1  0.94273777  0.99136443  0.27412003  1
  I  I86  1  0.04916284  0.52453000  0.72589433  1
  I  I87  1  0.99400716  0.54843529  0.27299604  1
  I  I88  1  0.46566303  0.01474035  0.72936228  1
  I  I89  1  0.52066721  0.03950507  0.27810504  1
  I  I90  1  0.45091236  0.48611699  0.71865171  1
  I  I91  1  0.52520402  0.49748855  0.26671280  1
  N  N92  1  0.28260740  0.25788538  0.78412927  1
  N  N93  1  0.25886114  0.24377314  0.20024044  1
  N  N94  1  0.25900777  0.70662639  0.78659594  1
  N  N95  1  0.23899204  0.74259860  0.20404019  1
  N  N96  1  0.74641819  0.20316795  0.21558215  1
  N  N97  1  0.76371912  0.23432481  0.79592553  1
  N  N98  1  0.79169110  0.74866532  0.21500232  1
  N  N99  1  0.75484519  0.76369485  0.79503945  1
  O  O100  1  0.25219479  0.16690314  0.41662431  1
  O  O101  1  0.16907715  0.75206769  0.42214026  1
  O  O102  1  0.83511389  0.25048641  0.58118408  1
  O  O103  1  0.75162453  0.83321345  0.57899737  1
