# generated using pymatgen
data_H14PbC10S(I2N)2
_symmetry_space_group_name_H-M   'P 1'
_cell_length_a   12.62193244
_cell_length_b   12.47092476
_cell_length_c   14.63348970
_cell_angle_alpha   90.17266325
_cell_angle_beta   92.21390906
_cell_angle_gamma   89.23455831
_symmetry_Int_Tables_number   1
_chemical_formula_structural   H14PbC10S(I2N)2
_chemical_formula_sum   'H56 Pb4 C40 S4 I16 N8'
_cell_volume   2301.48426845
_cell_formula_units_Z   4
loop_
 _symmetry_equiv_pos_site_id
 _symmetry_equiv_pos_as_xyz
  1  'x, y, z'
loop_
 _atom_site_type_symbol
 _atom_site_label
 _atom_site_symmetry_multiplicity
 _atom_site_fract_x
 _atom_site_fract_y
 _atom_site_fract_z
 _atom_site_occupancy
  H  H0  1  0.22147076  0.33319729  0.87655971  1
  H  H1  1  0.14700067  0.34935752  0.78206550  1
  H  H2  1  0.17191440  0.22600360  0.82289424  1
  H  H3  1  0.36030862  0.23983122  0.79616463  1
  H  H4  1  0.33841641  0.37419622  0.76006524  1
  H  H5  1  0.29260683  0.08767977  0.70147646  1
  H  H6  1  0.25344617  0.01781022  0.54479222  1
  H  H7  1  0.17504147  0.40043997  0.24181471  1
  H  H8  1  0.12618764  0.27138190  0.21451220  1
  H  H9  1  0.26354283  0.31032708  0.11846209  1
  H  H10  1  0.31615643  0.21493874  0.19029785  1
  H  H11  1  0.34910242  0.34454295  0.20338762  1
  H  H12  1  0.23820480  0.43533115  0.41114730  1
  H  H13  1  0.27774260  0.41420052  0.60348817  1
  H  H14  1  0.32473358  0.77368021  0.87844419  1
  H  H15  1  0.34666812  0.84955145  0.78877240  1
  H  H16  1  0.22267690  0.83042580  0.82192935  1
  H  H17  1  0.23567417  0.63834913  0.78782780  1
  H  H18  1  0.36817062  0.65825973  0.75607439  1
  H  H19  1  0.08465730  0.70667373  0.69162938  1
  H  H20  1  0.01403916  0.73988396  0.53345491  1
  H  H21  1  0.39382567  0.81801548  0.24696552  1
  H  H22  1  0.26996664  0.88132787  0.22042632  1
  H  H23  1  0.32213810  0.73830540  0.11675224  1
  H  H24  1  0.20184543  0.71751889  0.15795163  1
  H  H25  1  0.31041899  0.64684835  0.19783569  1
  H  H26  1  0.42645206  0.76493191  0.41386746  1
  H  H27  1  0.40681512  0.72598956  0.60410769  1
  H  H28  1  0.67990206  0.26609565  0.12477673  1
  H  H29  1  0.65008112  0.33068735  0.22008754  1
  H  H30  1  0.77781652  0.32185956  0.19268427  1
  H  H31  1  0.77523665  0.12624695  0.20841421  1
  H  H32  1  0.63999576  0.13725966  0.23888219  1
  H  H33  1  0.91864966  0.18567319  0.30921775  1
  H  H34  1  0.98622394  0.22963905  0.46609541  1
  H  H35  1  0.60675118  0.29857165  0.75726472  1
  H  H36  1  0.73334133  0.34872677  0.78888946  1
  H  H37  1  0.69953424  0.19383510  0.87404909  1
  H  H38  1  0.79517871  0.15416686  0.80156538  1
  H  H39  1  0.66828056  0.11916935  0.78329649  1
  H  H40  1  0.57159985  0.25021384  0.58289435  1
  H  H41  1  0.59466821  0.20855652  0.39238427  1
  H  H42  1  0.74898276  0.66819499  0.12135897  1
  H  H43  1  0.66759585  0.67693101  0.20795511  1
  H  H44  1  0.70956886  0.78916977  0.15648986  1
  H  H45  1  0.88401922  0.76934459  0.21461583  1
  H  H46  1  0.86019541  0.63456127  0.24723158  1
  H  H47  1  0.80822698  0.92151742  0.30124767  1
  H  H48  1  0.76288603  0.99107786  0.45440899  1
  H  H49  1  0.70176113  0.60958229  0.75609602  1
  H  H50  1  0.64493666  0.73695533  0.77933355  1
  H  H51  1  0.79312837  0.70514302  0.87793585  1
  H  H52  1  0.83213132  0.80339623  0.80633473  1
  H  H53  1  0.87344397  0.67420285  0.79440154  1
  H  H54  1  0.75180703  0.57310755  0.58611755  1
  H  H55  1  0.79114327  0.59462795  0.39556564  1
  Pb  Pb56  1  0.98830391  -0.01400219  0.01093846  1
  Pb  Pb57  1  0.98725569  0.48046927  0.01084961  1
  Pb  Pb58  1  0.48569024  0.00676714  0.00684925  1
  Pb  Pb59  1  0.49779625  0.49880551  0.00497225  1
  C  C60  1  0.30483022  0.29349059  0.75806112  1
  C  C61  1  0.28366377  0.25500283  0.66201362  1
  C  C62  1  0.27772295  0.14349534  0.64501213  1
  C  C63  1  0.25717541  0.10386789  0.55764228  1
  C  C64  1  0.24277592  0.17765051  0.48609151  1
  C  C65  1  0.21578738  0.28218500  0.34282359  1
  C  C66  1  0.19372096  0.31445575  0.24592271  1
  C  C67  1  0.23542936  0.34827682  0.41657663  1
  C  C68  1  0.25064532  0.29044677  0.50064686  1
  C  C69  1  0.27103599  0.32820670  0.59038445  1
  C  C70  1  0.28819540  0.69386719  0.75371223  1
  C  C71  1  0.24962042  0.71674734  0.65744046  1
  C  C72  1  0.13924257  0.72040639  0.63698183  1
  C  C73  1  0.09927879  0.73767370  0.54859142  1
  C  C74  1  0.17161616  0.75147831  0.47952806  1
  C  C75  1  0.27456617  0.78040991  0.34037396  1
  C  C76  1  0.30776449  0.80705092  0.24662947  1
  C  C77  1  0.34024530  0.76415177  0.41617360  1
  C  C78  1  0.28341081  0.74804306  0.49785799  1
  C  C79  1  0.32149641  0.73025915  0.58843970  1
  C  C80  1  0.71758575  0.17600537  0.24428678  1
  C  C81  1  0.75314146  0.19709482  0.34158691  1
  C  C82  1  0.86308521  0.20225864  0.36278786  1
  C  C83  1  0.90121068  0.22587940  0.45043290  1
  C  C84  1  0.82745324  0.24342168  0.51788716  1
  C  C85  1  0.72258748  0.27192810  0.65605199  1
  C  C86  1  0.69212402  0.28307645  0.75274590  1
  C  C87  1  0.65778548  0.25323635  0.58045570  1
  C  C88  1  0.71590476  0.23690914  0.49916991  1
  C  C89  1  0.67962418  0.21408069  0.40899137  1
  C  C90  1  0.82687283  0.71629400  0.24574203  1
  C  C91  1  0.79839086  0.75425292  0.33900951  1
  C  C92  1  0.79090431  0.86577322  0.35586862  1
  C  C93  1  0.76688665  0.90505239  0.44138532  1
  C  C94  1  0.75111658  0.83099899  0.51111315  1
  C  C95  1  0.72752734  0.72665830  0.65291220  1
  C  C96  1  0.71349619  0.69618497  0.74998461  1
  C  C97  1  0.74673275  0.66022242  0.58023347  1
  C  C98  1  0.76027644  0.71805071  0.49697555  1
  C  C99  1  0.78323066  0.68062359  0.40878549  1
  S  S100  1  0.21413680  0.14720919  0.37286540  1
  S  S101  1  0.14066913  0.77651272  0.36533619  1
  S  S102  1  0.85639804  0.27314713  0.63133784  1
  S  S103  1  0.72260838  0.86153742  0.62257902  1
  I  I104  1  0.23699291  0.96131863  0.99049118  1
  I  I105  1  0.24999075  0.48663380  1.00105560  1
  I  I106  1  0.73372429  0.95531223  0.04010342  1
  I  I107  1  0.74612327  0.53996255  0.98595770  1
  I  I108  1  0.05023355  0.23076181  -0.00103754  1
  I  I109  1  0.02401849  0.72550990  0.05040622  1
  I  I110  1  0.55325125  0.25000422  0.98515049  1
  I  I111  1  0.48285360  0.74916570  0.01876381  1
  I  I112  1  0.94184611  0.98227978  0.78628274  1
  I  I113  1  0.01852164  1.00173140  0.21892760  1
  I  I114  1  0.99297226  0.50093377  0.78572056  1
  I  I115  1  0.93377259  0.43466374  0.21847630  1
  I  I116  1  0.50394602  0.98639787  0.78316877  1
  I  I117  1  0.44305106  0.06146383  0.21448841  1
  I  I118  1  0.50509594  0.50453749  0.79304969  1
  I  I119  1  0.49358050  0.49510552  0.23717390  1
  N  N120  1  0.20542061  0.29960473  0.81226444  1
  N  N121  1  0.28637030  0.29391110  0.18582924  1
  N  N122  1  0.29479806  0.79264936  0.81328639  1
  N  N123  1  0.28234271  0.72127642  0.17632799  1
  N  N124  1  0.70597055  0.27992959  0.19205308  1
  N  N125  1  0.71718794  0.18134930  0.80598273  1
  N  N126  1  0.73164297  0.71300172  0.17956779  1
  N  N127  1  0.80910876  0.72322220  0.81070980  1
