# generated using pymatgen
data_H14PbC10I4N2O
_symmetry_space_group_name_H-M   'P 1'
_cell_length_a   12.37455441
_cell_length_b   12.24651215
_cell_length_c   14.55713143
_cell_angle_alpha   88.37477564
_cell_angle_beta   88.85653787
_cell_angle_gamma   90.41788287
_symmetry_Int_Tables_number   1
_chemical_formula_structural   H14PbC10I4N2O
_chemical_formula_sum   'H56 Pb4 C40 I16 N8 O4'
_cell_volume   2204.66763604
_cell_formula_units_Z   4
loop_
 _symmetry_equiv_pos_site_id
 _symmetry_equiv_pos_as_xyz
  1  'x, y, z'
loop_
 _atom_site_type_symbol
 _atom_site_label
 _atom_site_symmetry_multiplicity
 _atom_site_fract_x
 _atom_site_fract_y
 _atom_site_fract_z
 _atom_site_occupancy
  H  H0  1  0.31816175  0.21741078  0.88000073  1
  H  H1  1  0.38949650  0.18261905  0.78687429  1
  H  H2  1  0.35118191  0.31406390  0.80086885  1
  H  H3  1  0.16003212  0.25528457  0.79948712  1
  H  H4  1  0.20556968  0.12194326  0.77535074  1
  H  H5  1  0.22371472  0.41205558  0.69191440  1
  H  H6  1  0.24675127  0.47554525  0.52860095  1
  H  H7  1  0.26899295  0.38633163  0.33675726  1
  H  H8  1  0.33029301  0.10396741  0.25376923  1
  H  H9  1  0.18701262  0.11563370  0.24759188  1
  H  H10  1  0.21089869  0.30398953  0.19092658  1
  H  H11  1  0.27872683  0.21459831  0.12513830  1
  H  H12  1  0.34550327  0.29589432  0.19738499  1
  H  H13  1  0.23203172  0.07294340  0.61410316  1
  H  H14  1  0.22253601  0.68624003  0.88003407  1
  H  H15  1  0.16661792  0.62067274  0.79392302  1
  H  H16  1  0.30293612  0.63839721  0.79734333  1
  H  H17  1  0.26821428  0.84117117  0.79151825  1
  H  H18  1  0.13201241  0.80680937  0.76872937  1
  H  H19  1  0.41614895  0.77980769  0.68499836  1
  H  H20  1  0.47539923  0.75772819  0.52236867  1
  H  H21  1  0.38211467  0.72879506  0.33159467  1
  H  H22  1  0.09605618  0.65191129  0.26554587  1
  H  H23  1  0.10767946  0.79538756  0.24160683  1
  H  H24  1  0.28804579  0.76160382  0.17533124  1
  H  H25  1  0.19214559  0.69064366  0.12642628  1
  H  H26  1  0.27855731  0.62789615  0.20038906  1
  H  H27  1  0.07908579  0.76565765  0.61050351  1
  H  H28  1  0.79356262  0.20136043  0.12175837  1
  H  H29  1  0.82944756  0.13437556  0.21753737  1
  H  H30  1  0.69711801  0.15741702  0.19875964  1
  H  H31  1  0.73255380  0.35652660  0.20112636  1
  H  H32  1  0.86945037  0.32649190  0.22672582  1
  H  H33  1  0.58517933  0.29843366  0.30951705  1
  H  H34  1  0.52402469  0.27404947  0.47268196  1
  H  H35  1  0.61398651  0.24529187  0.66430235  1
  H  H36  1  0.88873818  0.16530684  0.74678182  1
  H  H37  1  0.88932331  0.31029560  0.75350379  1
  H  H38  1  0.70283310  0.29991325  0.81130405  1
  H  H39  1  0.78528559  0.22382272  0.87517054  1
  H  H40  1  0.69838411  0.16464973  0.80228686  1
  H  H41  1  0.92122586  0.27915467  0.38629804  1
  H  H42  1  0.78976937  0.81915649  0.12078879  1
  H  H43  1  0.86019693  0.83693141  0.21610621  1
  H  H44  1  0.83167520  0.70907524  0.17914077  1
  H  H45  1  0.64270130  0.73023014  0.20671336  1
  H  H46  1  0.66484160  0.86930020  0.23405691  1
  H  H47  1  0.70615275  0.58133867  0.31133819  1
  H  H48  1  0.73457116  0.51832492  0.47289702  1
  H  H49  1  0.76274333  0.60867276  0.66447408  1
  H  H50  1  0.84173623  0.88794468  0.74023965  1
  H  H51  1  0.69865815  0.89163749  0.75156656  1
  H  H52  1  0.70377570  0.70410472  0.81574554  1
  H  H53  1  0.77819655  0.79160473  0.87494211  1
  H  H54  1  0.83874092  0.70082578  0.80513982  1
  H  H55  1  0.71866086  0.92054426  0.38863618  1
  Pb  Pb56  1  0.01401209  0.00222085  0.01319754  1
  Pb  Pb57  1  0.00208761  0.49104775  0.00241474  1
  Pb  Pb58  1  0.50991556  1.00760573  0.00448435  1
  Pb  Pb59  1  0.50004713  0.51963583  -0.00096622  1
  C  C60  1  0.22266644  0.20908145  0.76312338  1
  C  C61  1  0.22960776  0.24017890  0.66276296  1
  C  C62  1  0.23223297  0.35248473  0.63786212  1
  C  C63  1  0.24413825  0.38867088  0.54697221  1
  C  C64  1  0.25116153  0.30971928  0.47930558  1
  C  C65  1  0.26121072  0.31384210  0.38097371  1
  C  C66  1  0.25882884  0.20835190  0.35403502  1
  C  C67  1  0.26211523  0.16058166  0.26157345  1
  C  C68  1  0.24484836  0.19785905  0.50527324  1
  C  C69  1  0.23548177  0.15994867  0.59592129  1
  C  C70  1  0.21610111  0.78204537  0.75787070  1
  C  C71  1  0.24542636  0.77269642  0.65782905  1
  C  C72  1  0.35597225  0.77130716  0.63186516  1
  C  C73  1  0.38978548  0.75949115  0.54112658  1
  C  C74  1  0.31046459  0.75036305  0.47428544  1
  C  C75  1  0.31170861  0.73741067  0.37636166  1
  C  C76  1  0.20625169  0.73460739  0.35148931  1
  C  C77  1  0.15283921  0.72168866  0.26220546  1
  C  C78  1  0.20049267  0.75396490  0.50153501  1
  C  C79  1  0.16483872  0.76428711  0.59188032  1
  C  C80  1  0.78544756  0.29917200  0.23781867  1
  C  C81  1  0.75533550  0.28845533  0.33814715  1
  C  C82  1  0.64459502  0.28766401  0.36329630  1
  C  C83  1  0.60977412  0.27474711  0.45421963  1
  C  C84  1  0.68841164  0.26395665  0.52170590  1
  C  C85  1  0.68539271  0.25210878  0.62006889  1
  C  C86  1  0.79023081  0.24870999  0.64646004  1
  C  C87  1  0.83844495  0.23890459  0.73865055  1
  C  C88  1  0.79879499  0.26629901  0.49539068  1
  C  C89  1  0.83537137  0.27762911  0.40478012  1
  C  C90  1  0.69721364  0.78639450  0.24122715  1
  C  C91  1  0.71277948  0.75334280  0.34003372  1
  C  C92  1  0.71710628  0.64113045  0.36466292  1
  C  C93  1  0.73212637  0.60522367  0.45492979  1
  C  C94  1  0.74205576  0.68414845  0.52225875  1
  C  C95  1  0.75541672  0.68079665  0.62014723  1
  C  C96  1  0.75716261  0.78664857  0.64627974  1
  C  C97  1  0.76752335  0.83783949  0.73672087  1
  C  C98  1  0.73696743  0.79589205  0.49614038  1
  C  C99  1  0.72289064  0.83357941  0.40644244  1
  I  I100  1  0.25833781  0.07173661  0.00853281  1
  I  I101  1  0.24560162  0.43954756  0.96083816  1
  I  I102  1  0.75825464  0.94825050  0.98839564  1
  I  I103  1  0.74769995  0.57853513  0.02817213  1
  I  I104  1  0.92885724  0.24612979  0.98892277  1
  I  I105  1  0.05039513  0.74637931  0.01549243  1
  I  I106  1  0.55689145  0.26464607  0.99312655  1
  I  I107  1  0.40813348  0.76508257  0.99683227  1
  I  I108  1  0.01405959  0.99441582  0.79993725  1
  I  I109  1  0.98041254  0.99935787  0.24419822  1
  I  I110  1  0.97428515  0.54164843  0.78120300  1
  I  I111  1  0.06077142  0.44032515  0.21229238  1
  I  I112  1  0.52502418  0.03235917  0.77807753  1
  I  I113  1  0.53081018  0.03961181  0.22006661  1
  I  I114  1  0.50983990  0.52896210  0.77852395  1
  I  I115  1  0.44307890  0.49922007  0.21682579  1
  N  N116  1  0.32736831  0.23343384  0.80982187  1
  N  N117  1  0.27581996  0.24928439  0.18979014  1
  N  N118  1  0.22877301  0.67474759  0.80997427  1
  N  N119  1  0.23324867  0.69880403  0.18790110  1
  N  N120  1  0.77472238  0.19140073  0.19135559  1
  N  N121  1  0.75050149  0.23114562  0.81039343  1
  N  N122  1  0.80213083  0.78669969  0.18686307  1
  N  N123  1  0.77236757  0.75300112  0.81224663  1
  O  O124  1  0.24949073  0.13493787  0.42792822  1
  O  O125  1  0.13599962  0.74452349  0.42575317  1
  O  O126  1  0.86200407  0.25685341  0.57257946  1
  O  O127  1  0.74639719  0.85944109  0.57257237  1
