# generated using pymatgen
data_H19PbC14I4N5
_symmetry_space_group_name_H-M   'P 1'
_cell_length_a   12.07185681
_cell_length_b   12.10747071
_cell_length_c   19.47591140
_cell_angle_alpha   88.56783622
_cell_angle_beta   88.39105969
_cell_angle_gamma   87.61603076
_symmetry_Int_Tables_number   1
_chemical_formula_structural   H19PbC14I4N5
_chemical_formula_sum   'H76 Pb4 C56 I16 N20'
_cell_volume   2842.19836245
_cell_formula_units_Z   4
loop_
 _symmetry_equiv_pos_site_id
 _symmetry_equiv_pos_as_xyz
  1  'x, y, z'
loop_
 _atom_site_type_symbol
 _atom_site_label
 _atom_site_symmetry_multiplicity
 _atom_site_fract_x
 _atom_site_fract_y
 _atom_site_fract_z
 _atom_site_occupancy
  H  H0  1  0.15983950  0.14996962  0.84751713  1
  H  H1  1  0.20739559  0.23268465  0.90813302  1
  H  H2  1  0.29593686  0.15198879  0.86271222  1
  H  H3  1  0.16075577  0.34819879  0.81253608  1
  H  H4  1  0.30598284  0.34207230  0.82468841  1
  H  H5  1  0.31087343  0.07400835  0.75148093  1
  H  H6  1  0.32212425  0.07657472  0.61296095  1
  H  H7  1  0.25516949  0.47832293  0.55510267  1
  H  H8  1  0.23738431  0.46686565  0.41729107  1
  H  H9  1  0.17477932  0.06239105  0.39737258  1
  H  H10  1  0.19903900  0.03265664  0.26103158  1
  H  H11  1  0.32056076  0.31409146  0.18048505  1
  H  H12  1  0.34158870  0.17093709  0.16367178  1
  H  H13  1  0.20718054  0.25665191  0.08948193  1
  H  H14  1  0.14245664  0.16409266  0.14107495  1
  H  H15  1  0.12605946  0.30107218  0.15499611  1
  H  H16  1  0.29231180  0.35566064  0.30376660  1
  H  H17  1  0.24837746  0.14254597  0.50249299  1
  H  H18  1  0.20724300  0.39225364  0.67885894  1
  H  H19  1  0.15859531  0.85211055  0.84659942  1
  H  H20  1  0.24871626  0.81101352  0.90808793  1
  H  H21  1  0.16982572  0.71964730  0.87395554  1
  H  H22  1  0.35583016  0.83992658  0.80697762  1
  H  H23  1  0.35696222  0.69641826  0.82862711  1
  H  H24  1  0.08810638  0.68367530  0.76041156  1
  H  H25  1  0.08489561  0.67189970  0.62226800  1
  H  H26  1  0.47918182  0.74384761  0.55618576  1
  H  H27  1  0.46414170  0.76254911  0.41816438  1
  H  H28  1  0.05318517  0.82439769  0.39894188  1
  H  H29  1  0.02276928  0.79676552  0.26380996  1
  H  H30  1  0.30655563  0.66538342  0.18490465  1
  H  H31  1  0.16324214  0.67185846  0.16598694  1
  H  H32  1  0.25773505  0.79909982  0.09392194  1
  H  H33  1  0.17553579  0.87226435  0.14771339  1
  H  H34  1  0.31408417  0.86265260  0.15911025  1
  H  H35  1  0.35456302  0.70260008  0.30784666  1
  H  H36  1  0.14089014  0.74888494  0.50580539  1
  H  H37  1  0.39181765  0.79481008  0.67701460  1
  H  H38  1  0.85501526  0.33864083  0.15080349  1
  H  H39  1  0.77038923  0.29192270  0.09058031  1
  H  H40  1  0.85245328  0.20306078  0.13465165  1
  H  H41  1  0.65591525  0.33723252  0.18682695  1
  H  H42  1  0.66233409  0.19261548  0.17449597  1
  H  H43  1  0.93112925  0.18684150  0.24869817  1
  H  H44  1  0.92687177  0.17973647  0.38654357  1
  H  H45  1  0.52243165  0.24703619  0.44349810  1
  H  H46  1  0.53233579  0.26295418  0.58120453  1
  H  H47  1  0.93850788  0.32465772  0.60209625  1
  H  H48  1  0.96669463  0.29724354  0.73917718  1
  H  H49  1  0.68377445  0.18166723  0.81967732  1
  H  H50  1  0.82736440  0.16510383  0.83707953  1
  H  H51  1  0.74204298  0.30140736  0.90818330  1
  H  H52  1  0.82988469  0.36595530  0.85346225  1
  H  H53  1  0.69170674  0.37794869  0.84269344  1
  H  H54  1  0.64212044  0.21039575  0.69423338  1
  H  H55  1  0.85851979  0.25813997  0.49648729  1
  H  H56  1  0.61144717  0.29442182  0.31908091  1
  H  H57  1  0.63662940  0.83569564  0.15392064  1
  H  H58  1  0.68447430  0.74612614  0.09308156  1
  H  H59  1  0.76895360  0.83392827  0.12533096  1
  H  H60  1  0.66577811  0.64027707  0.19459483  1
  H  H61  1  0.80813452  0.65079522  0.17110048  1
  H  H62  1  0.80814900  0.91853339  0.24038595  1
  H  H63  1  0.81727367  0.92239022  0.37811495  1
  H  H64  1  0.75470707  0.52457526  0.44132532  1
  H  H65  1  0.73797234  0.53587386  0.57953313  1
  H  H66  1  0.67195271  0.94488697  0.60158041  1
  H  H67  1  0.70151925  0.97445354  0.73745610  1
  H  H68  1  0.83124697  0.69197425  0.81555788  1
  H  H69  1  0.82789143  0.83538174  0.83319907  1
  H  H70  1  0.69890040  0.75122009  0.90710972  1
  H  H71  1  0.62494689  0.82616673  0.85073347  1
  H  H72  1  0.63521308  0.68647929  0.84486960  1
  H  H73  1  0.79503421  0.64441532  0.69129589  1
  H  H74  1  0.74276915  0.86061937  0.49509225  1
  H  H75  1  0.70730476  0.61107976  0.32209213  1
  Pb  Pb76  1  0.99103856  -0.00534315  0.98515034  1
  Pb  Pb77  1  1.00270113  0.50085629  0.00517800  1
  Pb  Pb78  1  0.50222941  0.01680180  0.00865688  1
  Pb  Pb79  1  0.49108077  0.49881799  0.01297483  1
  C  C80  1  0.23622872  0.29405455  0.80818032  1
  C  C81  1  0.25364060  0.24844771  0.73822926  1
  C  C82  1  0.28912628  0.14373091  0.71777022  1
  C  C83  1  0.29471258  0.14517981  0.64499980  1
  C  C84  1  0.26173379  0.25114874  0.62198316  1
  C  C85  1  0.25161501  0.29570906  0.55312205  1
  C  C86  1  0.24931606  0.40359796  0.52593939  1
  C  C87  1  0.24268603  0.39739426  0.45355979  1
  C  C88  1  0.24119719  0.28584572  0.43710508  1
  C  C89  1  0.23451590  0.23018372  0.37284642  1
  C  C90  1  0.20379567  0.12285552  0.35957701  1
  C  C91  1  0.21611469  0.10718458  0.28800726  1
  C  C92  1  0.25291378  0.20484343  0.25812637  1
  C  C93  1  0.28267301  0.23317437  0.18553784  1
  C  C94  1  0.30470870  0.76659041  0.80910996  1
  C  C95  1  0.25601846  0.74570281  0.74141154  1
  C  C96  1  0.15415310  0.70684934  0.72458973  1
  C  C97  1  0.15249189  0.70053585  0.65194716  1
  C  C98  1  0.25384861  0.73604496  0.62543362  1
  C  C99  1  0.29557262  0.74639036  0.55559773  1
  C  C100  1  0.40314828  0.74961976  0.52752192  1
  C  C101  1  0.39534574  0.75673060  0.45504616  1
  C  C102  1  0.28313623  0.75752607  0.43937629  1
  C  C103  1  0.22581748  0.76373267  0.37533206  1
  C  C104  1  0.11535711  0.79423635  0.36183759  1
  C  C105  1  0.09930574  0.78051567  0.29092633  1
  C  C106  1  0.19979487  0.74315550  0.26167044  1
  C  C107  1  0.22931922  0.71643097  0.18951195  1
  C  C108  1  0.71067064  0.26225887  0.19069053  1
  C  C109  1  0.75609786  0.24559330  0.26063167  1
  C  C110  1  0.86061150  0.20999281  0.28170742  1
  C  C111  1  0.85814560  0.20647065  0.35451246  1
  C  C112  1  0.75168449  0.24045691  0.37698883  1
  C  C113  1  0.70572985  0.25113773  0.44567287  1
  C  C114  1  0.59725401  0.25232067  0.47270301  1
  C  C115  1  0.60256973  0.25868513  0.54514953  1
  C  C116  1  0.71423033  0.26129713  0.56177920  1
  C  C117  1  0.76933856  0.26736191  0.62618531  1
  C  C118  1  0.87750768  0.29594869  0.63979968  1
  C  C119  1  0.89239062  0.28223896  0.71135546  1
  C  C120  1  0.79349265  0.24714355  0.74085547  1
  C  C121  1  0.76406907  0.22095677  0.81372208  1
  C  C122  1  0.73448828  0.69744508  0.19134534  1
  C  C123  1  0.75230519  0.74834907  0.25864295  1
  C  C124  1  0.78670292  0.85165695  0.27585448  1
  C  C125  1  0.79124532  0.85359291  0.34852868  1
  C  C126  1  0.75948757  0.75098168  0.37456737  1
  C  C127  1  0.75036476  0.70762786  0.44392866  1
  C  C128  1  0.74916978  0.59960091  0.47083490  1
  C  C129  1  0.74241449  0.60548378  0.54343556  1
  C  C130  1  0.73968062  0.71702686  0.56026761  1
  C  C131  1  0.73304323  0.77302215  0.62475002  1
  C  C132  1  0.70245797  0.88311873  0.63864722  1
  C  C133  1  0.71726900  0.89880390  0.70947709  1
  C  C134  1  0.75472968  0.79859174  0.73835875  1
  C  C135  1  0.78154338  0.76980376  0.81049683  1
  I  I136  1  0.24463753  0.03114928  1.00336944  1
  I  I137  1  0.25705102  0.39765369  0.99112898  1
  I  I138  1  0.74806220  0.92610033  0.98633206  1
  I  I139  1  0.74617500  0.56102595  0.01976403  1
  I  I140  1  0.95737402  0.24846901  0.97968299  1
  I  I141  1  0.07146508  0.74142725  0.01585863  1
  I  I142  1  0.60140211  0.25433969  0.01115671  1
  I  I143  1  0.44656160  0.75735652  -0.00105681  1
  I  I144  1  0.02355174  0.00196925  0.81963329  1
  I  I145  1  0.98646965  0.01123402  0.14955876  1
  I  I146  1  0.98294588  0.51403215  0.84079646  1
  I  I147  1  0.00397938  0.47101370  0.17256572  1
  I  I148  1  0.49868455  0.02598119  0.84406703  1
  I  I149  1  0.48684588  0.97467367  0.17645042  1
  I  I150  1  0.52576261  0.51131769  0.84131020  1
  I  I151  1  0.47549859  0.49796436  0.18163339  1
  N  N152  1  0.22383042  0.20156751  0.85957804  1
  N  N153  1  0.18324247  0.23806087  0.14007315  1
  N  N154  1  0.26302372  0.27866825  0.31037850  1
  N  N155  1  0.24634525  0.22616660  0.49836003  1
  N  N156  1  0.23701527  0.31267824  0.67973437  1
  N  N157  1  0.21536202  0.78825527  0.86237993  1
  N  N158  1  0.24540865  0.81937274  0.14503730  1
  N  N159  1  0.27580974  0.73415555  0.31359829  1
  N  N160  1  0.22448590  0.75151532  0.50120674  1
  N  N161  1  0.31542425  0.76330388  0.68090001  1
  N  N162  1  0.80285305  0.27495291  0.13869498  1
  N  N163  1  0.75675199  0.32303544  0.85687651  1
  N  N164  1  0.71951353  0.23929897  0.68841691  1
  N  N165  1  0.77478211  0.25706743  0.50062534  1
  N  N166  1  0.69102107  0.26420421  0.31883810  1
  N  N167  1  0.70430474  0.78361980  0.13820162  1
  N  N168  1  0.67827968  0.75699148  0.85581702  1
  N  N169  1  0.76310994  0.72291002  0.68618072  1
  N  N170  1  0.74432105  0.77705369  0.49903190  1
  N  N171  1  0.73574727  0.68859051  0.31883788  1
