# generated using pymatgen
data_H16PbC12(I2N3)2
_symmetry_space_group_name_H-M   'P 1'
_cell_length_a   12.31880297
_cell_length_b   12.12862128
_cell_length_c   17.80663350
_cell_angle_alpha   92.65633171
_cell_angle_beta   91.41399023
_cell_angle_gamma   89.32073890
_symmetry_Int_Tables_number   1
_chemical_formula_structural   H16PbC12(I2N3)2
_chemical_formula_sum   'H64 Pb4 C48 I16 N24'
_cell_volume   2656.66998055
_cell_formula_units_Z   4
loop_
 _symmetry_equiv_pos_site_id
 _symmetry_equiv_pos_as_xyz
  1  'x, y, z'
loop_
 _atom_site_type_symbol
 _atom_site_label
 _atom_site_symmetry_multiplicity
 _atom_site_fract_x
 _atom_site_fract_y
 _atom_site_fract_z
 _atom_site_occupancy
  H  H0  1  0.28399837  0.16537200  0.84719280  1
  H  H1  1  0.34075198  0.28711489  0.82629225  1
  H  H2  1  0.25747334  0.28091968  0.89869522  1
  H  H3  1  0.10704247  0.22861428  0.81457082  1
  H  H4  1  0.15667241  0.36356802  0.80394164  1
  H  H5  1  0.18497344  0.06686649  0.69877710  1
  H  H6  1  0.24780482  0.03257836  0.51947475  1
  H  H7  1  0.29897345  0.08708782  0.31874115  1
  H  H8  1  0.38823217  0.28364019  0.17834392  1
  H  H9  1  0.36273982  0.14189502  0.19111668  1
  H  H10  1  0.19787079  0.31564387  0.15760244  1
  H  H11  1  0.24003950  0.21055146  0.10103571  1
  H  H12  1  0.16738200  0.18331363  0.17597824  1
  H  H13  1  0.32503094  0.43345763  0.29771479  1
  H  H14  1  0.26840951  0.46698046  0.47808365  1
  H  H15  1  0.22147332  0.41231947  0.67938423  1
  H  H16  1  0.17547127  0.70677853  0.84920439  1
  H  H17  1  0.29731269  0.65316446  0.82366708  1
  H  H18  1  0.28767355  0.73975161  0.89910070  1
  H  H19  1  0.22366878  0.88914649  0.82206224  1
  H  H20  1  0.35974407  0.84516853  0.80579042  1
  H  H21  1  0.06813381  0.80601447  0.70613104  1
  H  H22  1  0.03555536  0.74653226  0.52366350  1
  H  H23  1  0.09135022  0.69062375  0.31906787  1
  H  H24  1  0.28538615  0.61300804  0.17208023  1
  H  H25  1  0.14569235  0.64336969  0.18824167  1
  H  H26  1  0.31838550  0.80184309  0.15386989  1
  H  H27  1  0.20955749  0.76487126  0.10147644  1
  H  H28  1  0.19266973  0.84308158  0.18004913  1
  H  H29  1  0.43244128  0.68424941  0.29132221  1
  H  H30  1  0.46307420  0.73929956  0.47397062  1
  H  H31  1  0.40922848  0.79034524  0.67749598  1
  H  H32  1  0.83479701  0.21223927  0.15444512  1
  H  H33  1  0.71270803  0.15550756  0.17038841  1
  H  H34  1  0.72640807  0.24145699  0.10073976  1
  H  H35  1  0.77054313  0.39402888  0.18758632  1
  H  H36  1  0.63756676  0.34253473  0.19750088  1
  H  H37  1  0.92778635  0.31459809  0.29848889  1
  H  H38  1  0.96292454  0.24642102  0.47576360  1
  H  H39  1  0.91168234  0.19991966  0.67769878  1
  H  H40  1  0.71751121  0.11476261  0.82086907  1
  H  H41  1  0.85655628  0.14518193  0.80828809  1
  H  H42  1  0.67957158  0.30888606  0.84098545  1
  H  H43  1  0.77913480  0.26899725  0.89935454  1
  H  H44  1  0.81004967  0.34294659  0.82622920  1
  H  H45  1  0.57089619  0.17778961  0.70517125  1
  H  H46  1  0.53688187  0.23548940  0.52597138  1
  H  H47  1  0.58751982  0.28458257  0.32511017  1
  H  H48  1  0.77596935  0.83452322  0.15275546  1
  H  H49  1  0.83808422  0.71304086  0.17307978  1
  H  H50  1  0.75117396  0.71939874  0.10003669  1
  H  H51  1  0.60281126  0.76875491  0.18275664  1
  H  H52  1  0.65744518  0.63433623  0.19374636  1
  H  H53  1  0.68933701  0.93148013  0.29710270  1
  H  H54  1  0.74831511  0.96800366  0.47900533  1
  H  H55  1  0.79595849  0.91477933  0.68228396  1
  H  H56  1  0.89071774  0.71850898  0.82432953  1
  H  H57  1  0.85232827  0.85884219  0.81368384  1
  H  H58  1  0.70330703  0.67285155  0.83946900  1
  H  H59  1  0.74046534  0.77528977  0.90059964  1
  H  H60  1  0.66262301  0.80512283  0.82594093  1
  H  H61  1  0.81940974  0.56812406  0.70559151  1
  H  H62  1  0.76664692  0.53397156  0.52327912  1
  H  H63  1  0.72028713  0.58556917  0.32128454  1
  Pb  Pb64  1  0.01986044  0.00332823  0.00563265  1
  Pb  Pb65  1  0.98099163  0.50431714  0.00530484  1
  Pb  Pb66  1  0.52352140  0.00051274  0.99492750  1
  Pb  Pb67  1  0.47641861  0.49864524  0.99208946  1
  C  C68  1  0.17462607  0.27555995  0.79338636  1
  C  C69  1  0.19417696  0.24855851  0.71302729  1
  C  C70  1  0.19909667  0.14565848  0.67429009  1
  C  C71  1  0.22538979  0.16754313  0.59962227  1
  C  C72  1  0.26305966  0.19697064  0.48000617  1
  C  C73  1  0.28375410  0.21646607  0.40386894  1
  C  C74  1  0.31823209  0.25169394  0.28369424  1
  C  C75  1  0.33197664  0.22613885  0.20258687  1
  C  C76  1  0.31391406  0.35445402  0.32266359  1
  C  C77  1  0.29194655  0.33226853  0.39799654  1
  C  C78  1  0.25843476  0.30256121  0.51815953  1
  C  C79  1  0.23516868  0.28321047  0.59393597  1
  C  C80  1  0.27419636  0.82241978  0.79714975  1
  C  C81  1  0.24711472  0.80080370  0.71665632  1
  C  C82  1  0.14595638  0.79410065  0.67949270  1
  C  C83  1  0.16790802  0.77064891  0.60282237  1
  C  C84  1  0.19765217  0.73604326  0.48057465  1
  C  C85  1  0.21742748  0.71632382  0.40299773  1
  C  C86  1  0.25366201  0.68799115  0.28028566  1
  C  C87  1  0.22893474  0.67254039  0.19901743  1
  C  C88  1  0.35440996  0.69344824  0.31798737  1
  C  C89  1  0.33164601  0.71150032  0.39492453  1
  C  C90  1  0.30144840  0.74270778  0.51725596  1
  C  C91  1  0.28204947  0.76429359  0.59456348  1
  C  C92  1  0.72410578  0.32476704  0.20764902  1
  C  C93  1  0.74942825  0.30526531  0.28751301  1
  C  C94  1  0.85069256  0.30013994  0.32438552  1
  C  C95  1  0.82984221  0.27388151  0.39908333  1
  C  C96  1  0.80201000  0.23610793  0.51877546  1
  C  C97  1  0.78350618  0.21685127  0.59530367  1
  C  C98  1  0.74923112  0.18515664  0.71609460  1
  C  C99  1  0.77295323  0.17354170  0.79703221  1
  C  C100  1  0.64822025  0.18900446  0.67880216  1
  C  C101  1  0.66958868  0.20934648  0.60320127  1
  C  C102  1  0.69789489  0.24079486  0.48261974  1
  C  C103  1  0.71609077  0.26430866  0.40676102  1
  C  C104  1  0.67315306  0.72255956  0.20444718  1
  C  C105  1  0.69622676  0.74988406  0.28490595  1
  C  C106  1  0.70305131  0.85306977  0.32283490  1
  C  C107  1  0.72829344  0.83205142  0.39860122  1
  C  C108  1  0.76411904  0.80390596  0.51980287  1
  C  C109  1  0.78327735  0.78497807  0.59693156  1
  C  C110  1  0.81323833  0.74954392  0.71867824  1
  C  C111  1  0.82855367  0.77312941  0.80030760  1
  C  C112  1  0.80853946  0.64691655  0.67989360  1
  C  C113  1  0.78956495  0.66904780  0.60368765  1
  C  C114  1  0.75860761  0.69790066  0.48226290  1
  C  C115  1  0.73615211  0.71627998  0.40561336  1
  I  I116  1  0.27231430  0.06371312  0.99496283  1
  I  I117  1  0.22964966  0.42244811  0.00594266  1
  I  I118  1  0.77434762  0.92864733  0.00359516  1
  I  I119  1  0.72820686  0.56560068  -0.00330722  1
  I  I120  1  0.93112396  0.24947794  0.00685999  1
  I  I121  1  0.07321277  0.74637292  0.99282359  1
  I  I122  1  0.57718239  0.25250929  0.99155534  1
  I  I123  1  0.42929944  0.75531008  0.00807566  1
  I  I124  1  0.02779919  0.00650459  0.82976465  1
  I  I125  1  0.05186743  0.01073900  0.19406585  1
  I  I126  1  0.96138881  0.48618458  0.82573964  1
  I  I127  1  0.96002813  0.52795858  0.18878663  1
  I  I128  1  0.53936276  0.96930697  0.81148109  1
  I  I129  1  0.55209859  0.01367182  0.17433760  1
  I  I130  1  0.44526430  0.48466171  0.80465634  1
  I  I131  1  0.47807804  0.49417974  0.16678482  1
  N  N132  1  0.27146463  0.24916951  0.84412260  1
  N  N133  1  0.24137101  0.11499544  0.52970497  1
  N  N134  1  0.30013852  0.16866006  0.33346672  1
  N  N135  1  0.22658587  0.23565599  0.15691436  1
  N  N136  1  0.27812550  0.38472242  0.46821250  1
  N  N137  1  0.21557869  0.33123999  0.66380200  1
  N  N138  1  0.25681357  0.72342756  0.84460474  1
  N  N139  1  0.11648082  0.75408051  0.53297988  1
  N  N140  1  0.17098277  0.70298334  0.33211437  1
  N  N141  1  0.23871560  0.77803522  0.15672634  1
  N  N142  1  0.38297112  0.72530001  0.46502778  1
  N  N143  1  0.32908645  0.78166319  0.66483786  1
  N  N144  1  0.75225298  0.22652147  0.15552589  1
  N  N145  1  0.88222441  0.25861608  0.46796306  1
  N  N146  1  0.83107571  0.20199655  0.66495080  1
  N  N147  1  0.75881700  0.28114299  0.84324280  1
  N  N148  1  0.61737969  0.22183270  0.53393017  1
  N  N149  1  0.66814562  0.28326008  0.33784431  1
  N  N150  1  0.76636511  0.75046283  0.15490020  1
  N  N151  1  0.74498410  0.88546606  0.46849492  1
  N  N152  1  0.79796761  0.83300816  0.66794691  1
  N  N153  1  0.72647692  0.75407247  0.84385170  1
  N  N154  1  0.77646623  0.61594419  0.53338278  1
  N  N155  1  0.71629278  0.66727189  0.33554465  1
