# generated using pymatgen
data_H16PbC10(IN)4
_symmetry_space_group_name_H-M   'P 1'
_cell_length_a   12.57717059
_cell_length_b   12.22404462
_cell_length_c   15.76913466
_cell_angle_alpha   93.98675586
_cell_angle_beta   91.88021522
_cell_angle_gamma   90.51453943
_symmetry_Int_Tables_number   1
_chemical_formula_structural   H16PbC10(IN)4
_chemical_formula_sum   'H64 Pb4 C40 I16 N16'
_cell_volume   2417.08514382
_cell_formula_units_Z   4
loop_
 _symmetry_equiv_pos_site_id
 _symmetry_equiv_pos_as_xyz
  1  'x, y, z'
loop_
 _atom_site_type_symbol
 _atom_site_label
 _atom_site_symmetry_multiplicity
 _atom_site_fract_x
 _atom_site_fract_y
 _atom_site_fract_z
 _atom_site_occupancy
  H  H0  1  0.25254755  0.29782197  0.88958858  1
  H  H1  1  0.16199899  0.28195365  0.81015486  1
  H  H2  1  0.23308918  0.17258664  0.84212524  1
  H  H3  1  0.39519889  0.25099225  0.79582295  1
  H  H4  1  0.32568250  0.37035831  0.76997719  1
  H  H5  1  0.30233563  0.05193761  0.68841336  1
  H  H6  1  0.26130106  0.04672482  0.51886760  1
  H  H7  1  0.25496232  0.45495700  0.47844776  1
  H  H8  1  0.20874429  0.44978163  0.30958782  1
  H  H9  1  0.16583552  0.13262506  0.23054350  1
  H  H10  1  0.10656063  0.25740736  0.20394110  1
  H  H11  1  0.24532936  0.19671138  0.10993043  1
  H  H12  1  0.27448171  0.32038365  0.15664431  1
  H  H13  1  0.33660795  0.20569378  0.18922639  1
  H  H14  1  0.22251339  0.12440058  0.38214743  1
  H  H15  1  0.27381948  0.37717848  0.61788148  1
  H  H16  1  0.30574161  0.75998385  0.88618739  1
  H  H17  1  0.28188418  0.84826847  0.81214578  1
  H  H18  1  0.18163195  0.77179908  0.84890841  1
  H  H19  1  0.24990216  0.60607905  0.78762616  1
  H  H20  1  0.36786434  0.67429567  0.76057061  1
  H  H21  1  0.05821341  0.68909289  0.69038737  1
  H  H22  1  0.05228938  0.73257301  0.52447518  1
  H  H23  1  0.44809073  0.75296008  0.47285814  1
  H  H24  1  0.44281908  0.80058863  0.30779063  1
  H  H25  1  0.13468291  0.83213559  0.23983381  1
  H  H26  1  0.25690992  0.89160917  0.21207381  1
  H  H27  1  0.19146517  0.74271334  0.11318386  1
  H  H28  1  0.31325286  0.71979411  0.15127480  1
  H  H29  1  0.20571865  0.65225770  0.18691059  1
  H  H30  1  0.12717998  0.77401254  0.38765109  1
  H  H31  1  0.37332034  0.72771375  0.61226141  1
  H  H32  1  0.69727074  0.25784479  0.11471593  1
  H  H33  1  0.71500358  0.34800467  0.19843463  1
  H  H34  1  0.81949353  0.27745069  0.15694056  1
  H  H35  1  0.75255170  0.10645166  0.19717913  1
  H  H36  1  0.63377778  0.17022803  0.23178581  1
  H  H37  1  0.94258171  0.19335005  0.30455531  1
  H  H38  1  0.94749013  0.23632113  0.47537320  1
  H  H39  1  0.55124089  0.24746619  0.52677100  1
  H  H40  1  0.55587596  0.29600195  0.69691549  1
  H  H41  1  0.86338414  0.33761643  0.76851192  1
  H  H42  1  0.74032197  0.39203203  0.80329094  1
  H  H43  1  0.80789315  0.24479678  0.88587342  1
  H  H44  1  0.68668438  0.21701042  0.84425318  1
  H  H45  1  0.79475710  0.15375564  0.80215267  1
  H  H46  1  0.87170931  0.28094633  0.61539563  1
  H  H47  1  0.62699817  0.22235439  0.38501081  1
  H  H48  1  0.74717553  0.69697655  0.11181453  1
  H  H49  1  0.65958849  0.71554139  0.18872657  1
  H  H50  1  0.73154252  0.82329001  0.15665297  1
  H  H51  1  0.89331031  0.74743706  0.20958897  1
  H  H52  1  0.82279785  0.62795668  0.23456183  1
  H  H53  1  0.81346419  0.94765773  0.31470694  1
  H  H54  1  0.77059305  0.95368723  0.48158760  1
  H  H55  1  0.74497426  0.54538574  0.52113921  1
  H  H56  1  0.69651839  0.55082242  0.68711261  1
  H  H57  1  0.66922644  0.86916644  0.76493738  1
  H  H58  1  0.60831805  0.74459550  0.79065221  1
  H  H59  1  0.75108141  0.80775816  0.88841067  1
  H  H60  1  0.77556685  0.68277714  0.84455535  1
  H  H61  1  0.83934195  0.79556575  0.81151681  1
  H  H62  1  0.72917624  0.87627365  0.61741332  1
  H  H63  1  0.76714408  0.62312059  0.38246077  1
  Pb  Pb64  1  0.97844323  -0.00129228  0.98796627  1
  Pb  Pb65  1  0.01911413  0.49749054  0.99404149  1
  Pb  Pb66  1  0.48075226  0.00424802  0.00703480  1
  Pb  Pb67  1  0.52030443  0.50226155  0.01036259  1
  C  C68  1  0.32000458  0.28063500  0.76885228  1
  C  C69  1  0.29566677  0.23086371  0.68190118  1
  C  C70  1  0.28979641  0.12187171  0.65073159  1
  C  C71  1  0.26880576  0.11980971  0.56200483  1
  C  C72  1  0.26227149  0.22829430  0.53987881  1
  C  C73  1  0.24411871  0.27346650  0.45880628  1
  C  C74  1  0.24208194  0.38186759  0.43602631  1
  C  C75  1  0.21866162  0.37978158  0.34762179  1
  C  C76  1  0.20698848  0.27085689  0.31728573  1
  C  C77  1  0.17890847  0.22157559  0.23087598  1
  C  C78  1  0.28113819  0.68167376  0.76314906  1
  C  C79  1  0.23186716  0.70248035  0.67928497  1
  C  C80  1  0.12590958  0.70407954  0.65168529  1
  C  C81  1  0.12336788  0.72604282  0.56470747  1
  C  C82  1  0.22840424  0.73674048  0.53981159  1
  C  C83  1  0.27198037  0.75688207  0.45876663  1
  C  C84  1  0.37714675  0.76388099  0.43335719  1
  C  C85  1  0.37492598  0.78779634  0.34681311  1
  C  C86  1  0.26904121  0.79415031  0.31994354  1
  C  C87  1  0.22061394  0.81841359  0.23657817  1
  C  C88  1  0.72047514  0.18081385  0.22984569  1
  C  C89  1  0.76906102  0.20282098  0.31620447  1
  C  C90  1  0.87483743  0.20703231  0.34460312  1
  C  C91  1  0.87675949  0.22877372  0.43394219  1
  C  C92  1  0.77143954  0.23710611  0.45920234  1
  C  C93  1  0.72735270  0.25632725  0.54209048  1
  C  C94  1  0.62199826  0.26035751  0.56769720  1
  C  C95  1  0.62380347  0.28474314  0.65673724  1
  C  C96  1  0.72954422  0.29463297  0.68468686  1
  C  C97  1  0.77762803  0.32047335  0.77073575  1
  C  C98  1  0.81882942  0.71753237  0.23466015  1
  C  C99  1  0.79793637  0.76852417  0.32043856  1
  C  C100  1  0.79742540  0.87778186  0.35139981  1
  C  C101  1  0.77555669  0.88034641  0.43897683  1
  C  C102  1  0.76354890  0.77205237  0.46068208  1
  C  C103  1  0.74275464  0.72707813  0.54076353  1
  C  C104  1  0.73491079  0.61861052  0.56303722  1
  C  C105  1  0.71055964  0.62088911  0.65011780  1
  C  C106  1  0.70458159  0.73013545  0.68025533  1
  C  C107  1  0.68023871  0.78032513  0.76553034  1
  I  I108  1  0.22503640  0.05723778  0.98281782  1
  I  I109  1  0.27439595  0.43749888  0.01645983  1
  I  I110  1  0.72475020  0.93990867  0.01473936  1
  I  I111  1  0.77454638  0.56285625  0.98543057  1
  I  I112  1  0.93436571  0.25279424  0.01504649  1
  I  I113  1  0.06528119  0.75056164  0.98069366  1
  I  I114  1  0.57068747  0.24859660  0.98666613  1
  I  I115  1  0.43106219  0.75047628  0.01826668  1
  I  I116  1  0.92698016  0.99202002  0.77842297  1
  I  I117  1  0.97994587  0.98612761  0.18371058  1
  I  I118  1  0.05263215  0.45724317  0.78945432  1
  I  I119  1  0.03687526  0.52003694  0.19556448  1
  I  I120  1  0.46430444  0.98216275  0.80632324  1
  I  I121  1  0.44962890  0.03979631  0.21279691  1
  I  I122  1  0.51959768  0.51215520  0.81439438  1
  I  I123  1  0.57625571  0.50922578  0.21940073  1
  N  N124  1  0.23618980  0.25486350  0.83089227  1
  N  N125  1  0.26470969  0.23881391  0.16839388  1
  N  N126  1  0.22330098  0.20754744  0.38562223  1
  N  N127  1  0.27817331  0.29421915  0.61373011  1
  N  N128  1  0.26033722  0.77183346  0.83097278  1
  N  N129  1  0.23465758  0.72676082  0.16853033  1
  N  N130  1  0.20779571  0.77477330  0.38867451  1
  N  N131  1  0.29277165  0.72287332  0.61059264  1
  N  N132  1  0.74036910  0.27229769  0.17233434  1
  N  N133  1  0.76509015  0.22767850  0.82848870  1
  N  N134  1  0.79116651  0.27637691  0.61428078  1
  N  N135  1  0.70768021  0.22201366  0.38658160  1
  N  N136  1  0.73304908  0.74142622  0.16942688  1
  N  N137  1  0.76798702  0.76400980  0.83108269  1
  N  N138  1  0.72464794  0.79316689  0.61307743  1
  N  N139  1  0.77692258  0.70580747  0.38760038  1
