# generated using pymatgen
data_H10PbC8S(I2N)2
_symmetry_space_group_name_H-M   'P 1'
_cell_length_a   12.80836486
_cell_length_b   12.49757337
_cell_length_c   12.02375454
_cell_angle_alpha   88.44193105
_cell_angle_beta   87.99850593
_cell_angle_gamma   89.07288148
_symmetry_Int_Tables_number   1
_chemical_formula_structural   H10PbC8S(I2N)2
_chemical_formula_sum   'H40 Pb4 C32 S4 I16 N8'
_cell_volume   1922.57537519
_cell_formula_units_Z   4
loop_
 _symmetry_equiv_pos_site_id
 _symmetry_equiv_pos_as_xyz
  1  'x, y, z'
loop_
 _atom_site_type_symbol
 _atom_site_label
 _atom_site_symmetry_multiplicity
 _atom_site_fract_x
 _atom_site_fract_y
 _atom_site_fract_z
 _atom_site_occupancy
  H  H0  1  0.34923754  0.34054084  0.75831245  1
  H  H1  1  0.28865172  0.29095440  0.87216367  1
  H  H2  1  0.35309096  0.20692955  0.78669371  1
  H  H3  1  0.17345331  0.18246435  0.75626652  1
  H  H4  1  0.15202714  0.32497495  0.75279618  1
  H  H5  1  0.23513444  0.09139271  0.57275758  1
  H  H6  1  0.27211249  0.04978509  0.33963509  1
  H  H7  1  0.29711731  0.14099652  0.15227357  1
  H  H8  1  0.29121397  0.32885091  0.13892104  1
  H  H9  1  0.26499765  0.44568618  0.28108967  1
  H  H10  1  0.33782344  0.64116847  0.75467111  1
  H  H11  1  0.28723286  0.69947430  0.86696389  1
  H  H12  1  0.20726621  0.64076142  0.77806642  1
  H  H13  1  0.18846445  0.83037327  0.75031262  1
  H  H14  1  0.32675103  0.84475653  0.74675183  1
  H  H15  1  0.09844408  0.76742998  0.57019930  1
  H  H16  1  0.05832059  0.73059470  0.34057801  1
  H  H17  1  0.14634190  0.70379129  0.15337546  1
  H  H18  1  0.32962163  0.71121135  0.13603425  1
  H  H19  1  0.44347729  0.73903080  0.27530793  1
  H  H20  1  0.65969882  0.14125034  0.24199467  1
  H  H21  1  0.72661931  0.19138959  0.13185619  1
  H  H22  1  0.79044972  0.12848565  0.23311563  1
  H  H23  1  0.81580249  0.32041419  0.24270303  1
  H  H24  1  0.67753641  0.34125049  0.24431639  1
  H  H25  1  0.90439394  0.26567363  0.42679139  1
  H  H26  1  0.94563164  0.23076472  0.65885136  1
  H  H27  1  0.85776689  0.20212225  0.84726011  1
  H  H28  1  0.67555467  0.20574155  0.86298353  1
  H  H29  1  0.56023981  0.23731080  0.72264852  1
  H  H30  1  0.85676565  0.65733016  0.24132327  1
  H  H31  1  0.80417664  0.71706568  0.13110297  1
  H  H32  1  0.85700533  0.79373545  0.22665398  1
  H  H33  1  0.67209994  0.81018587  0.25011194  1
  H  H34  1  0.66053964  0.66716700  0.25179572  1
  H  H35  1  0.72986242  0.90317086  0.42991971  1
  H  H36  1  0.77155190  0.94606355  0.65809990  1
  H  H37  1  0.80755773  0.85600001  0.84189934  1
  H  H38  1  0.80505283  0.66918190  0.85835295  1
  H  H39  1  0.77473086  0.55046880  0.72059378  1
  Pb  Pb40  1  0.01494678  0.99477095  0.00449321  1
  Pb  Pb41  1  0.01249505  0.48859182  0.00595154  1
  Pb  Pb42  1  0.50963828  0.98796632  0.99526942  1
  Pb  Pb43  1  0.51916610  0.49266177  0.99497828  1
  C  C44  1  0.20621617  0.25980020  0.72820039  1
  C  C45  1  0.22545503  0.26127745  0.60502845  1
  C  C46  1  0.23812284  0.17324263  0.53951473  1
  C  C47  1  0.25382247  0.20176449  0.42489565  1
  C  C48  1  0.26955482  0.13668745  0.33184145  1
  C  C49  1  0.28386737  0.18511834  0.22844258  1
  C  C50  1  0.26580505  0.36048908  0.30190967  1
  C  C51  1  0.25249974  0.31549910  0.40789069  1
  C  C52  1  0.26296771  0.79327992  0.72239783  1
  C  C53  1  0.26396488  0.77849906  0.59953660  1
  C  C54  1  0.17821153  0.76564972  0.53592365  1
  C  C55  1  0.20623884  0.74972972  0.42203020  1
  C  C56  1  0.14288486  0.73285583  0.33093634  1
  C  C57  1  0.18972022  0.71791604  0.22767610  1
  C  C58  1  0.36059341  0.73778480  0.29725038  1
  C  C59  1  0.31708113  0.75169986  0.40315727  1
  C  C60  1  0.74059944  0.28720608  0.27231756  1
  C  C61  1  0.73868653  0.27440326  0.39619180  1
  C  C62  1  0.82465296  0.26375771  0.46101081  1
  C  C63  1  0.79709146  0.25025104  0.57603903  1
  C  C64  1  0.86098458  0.23428819  0.66826111  1
  C  C65  1  0.81462155  0.21834441  0.77213112  1
  C  C66  1  0.64313679  0.23769273  0.70113037  1
  C  C67  1  0.68628419  0.25189175  0.59451423  1
  C  C68  1  0.70874370  0.73391627  0.27675870  1
  C  C69  1  0.72243991  0.73321340  0.39968236  1
  C  C70  1  0.73337738  0.82152677  0.46361028  1
  C  C71  1  0.75217841  0.79352269  0.57660984  1
  C  C72  1  0.77083908  0.85919340  0.66682794  1
  C  C73  1  0.79081415  0.81132399  0.76840925  1
  C  C74  1  0.77228876  0.63552925  0.69908913  1
  C  C75  1  0.75361320  0.67977024  0.59469695  1
  S  S76  1  0.23086354  0.38249265  0.53008602  1
  S  S77  1  0.38196093  0.77408619  0.52340279  1
  S  S78  1  0.62070186  0.27106876  0.47255032  1
  S  S79  1  0.73149555  0.61248136  0.47463433  1
  I  I80  1  0.25821266  -0.00084620  0.98572176  1
  I  I81  1  0.26178016  0.48493822  0.00542167  1
  I  I82  1  0.75415930  0.00566796  0.99332611  1
  I  I83  1  0.76193290  0.50675444  -0.00157900  1
  I  I84  1  0.98426883  0.24255746  0.04128482  1
  I  I85  1  0.99626375  0.74348751  0.98763744  1
  I  I86  1  0.50444271  0.24148161  1.00168841  1
  I  I87  1  0.47553034  0.73940652  0.98224547  1
  I  I88  1  0.02658928  1.00059951  0.74188035  1
  I  I89  1  0.93860214  0.97249788  0.27651160  1
  I  I90  1  0.04714624  0.52362522  0.73580864  1
  I  I91  1  0.97984376  0.49829873  0.27299542  1
  I  I92  1  0.48690386  0.01081750  0.72878811  1
  I  I93  1  0.52357862  0.99357504  0.26827307  1
  I  I94  1  0.47752946  0.49191925  0.71787709  1
  I  I95  1  0.51232400  0.49287280  0.25718607  1
  N  N96  1  0.30545792  0.27489052  0.78951790  1
  N  N97  1  0.28115043  0.29353196  0.21720334  1
  N  N98  1  0.27410711  0.68744958  0.78395959  1
  N  N99  1  0.29550646  0.72116820  0.21435263  1
  N  N100  1  0.72846211  0.18160254  0.21735040  1
  N  N101  1  0.70866599  0.22096827  0.78494802  1
  N  N102  1  0.81273889  0.72485269  0.21553024  1
  N  N103  1  0.78997500  0.70308317  0.78124778  1
