# generated using pymatgen
data_H15PbC10I4N5
_symmetry_space_group_name_H-M   'P 1'
_cell_length_a   12.73262072
_cell_length_b   12.28169500
_cell_length_c   15.74904163
_cell_angle_alpha   90.40953773
_cell_angle_beta   91.04602057
_cell_angle_gamma   89.65961175
_symmetry_Int_Tables_number   1
_chemical_formula_structural   H15PbC10I4N5
_chemical_formula_sum   'H60 Pb4 C40 I16 N20'
_cell_volume   2462.29131903
_cell_formula_units_Z   4
loop_
 _symmetry_equiv_pos_site_id
 _symmetry_equiv_pos_as_xyz
  1  'x, y, z'
loop_
 _atom_site_type_symbol
 _atom_site_label
 _atom_site_symmetry_multiplicity
 _atom_site_fract_x
 _atom_site_fract_y
 _atom_site_fract_z
 _atom_site_occupancy
  H  H0  1  0.37125170  0.14003328  0.80209297  1
  H  H1  1  0.33462469  0.27009108  0.81973967  1
  H  H2  1  0.29987342  0.17391501  0.88649812  1
  H  H3  1  0.14725783  0.21366797  0.80610177  1
  H  H4  1  0.19424262  0.08464671  0.77342393  1
  H  H5  1  0.20696406  0.39134798  0.69815856  1
  H  H6  1  0.25259371  0.46774180  0.50130530  1
  H  H7  1  0.29031874  0.39511375  0.30214577  1
  H  H8  1  0.31287696  0.08889792  0.22211605  1
  H  H9  1  0.36045152  0.21831616  0.19402260  1
  H  H10  1  0.21776717  0.18087493  0.10568696  1
  H  H11  1  0.17314444  0.27677697  0.17321619  1
  H  H12  1  0.13791027  0.14630977  0.18443346  1
  H  H13  1  0.26987528  0.06396107  0.37723000  1
  H  H14  1  0.24008197  0.06197173  0.61767414  1
  H  H15  1  0.15388313  0.62571421  0.80643820  1
  H  H16  1  0.27966360  0.66609262  0.82069686  1
  H  H17  1  0.18987426  0.70257359  0.88964085  1
  H  H18  1  0.21560342  0.85937047  0.80903549  1
  H  H19  1  0.09430901  0.80383594  0.77477820  1
  H  H20  1  0.39073125  0.79692174  0.70211696  1
  H  H21  1  0.46381476  0.75085683  0.50467819  1
  H  H22  1  0.39381532  0.71393307  0.30375561  1
  H  H23  1  0.09669711  0.68534756  0.22465052  1
  H  H24  1  0.21961207  0.62784017  0.19868194  1
  H  H25  1  0.18439459  0.76545538  0.10375800  1
  H  H26  1  0.27904008  0.81377651  0.16603264  1
  H  H27  1  0.15500219  0.85964949  0.17896571  1
  H  H28  1  0.07465113  0.73284680  0.37721908  1
  H  H29  1  0.07330214  0.76169474  0.61874667  1
  H  H30  1  0.84776154  0.14202087  0.18512269  1
  H  H31  1  0.72084419  0.17610016  0.17119220  1
  H  H32  1  0.81309183  0.22905389  0.10821107  1
  H  H33  1  0.76846946  0.36956064  0.19961829  1
  H  H34  1  0.89595175  0.32347098  0.22804275  1
  H  H35  1  0.60384050  0.28969391  0.30437384  1
  H  H36  1  0.53807032  0.25258277  0.50251689  1
  H  H37  1  0.61263397  0.21108789  0.70090599  1
  H  H38  1  0.90672150  0.21011232  0.78536859  1
  H  H39  1  0.78432871  0.15712816  0.81505275  1
  H  H40  1  0.80732292  0.31996722  0.89100304  1
  H  H41  1  0.72049695  0.35609960  0.81477412  1
  H  H42  1  0.84839012  0.38876018  0.80775218  1
  H  H43  1  0.92968863  0.24282067  0.62576228  1
  H  H44  1  0.92471485  0.27342796  0.38193972  1
  H  H45  1  0.84598714  0.83772836  0.18491852  1
  H  H46  1  0.79501791  0.71882495  0.15172226  1
  H  H47  1  0.75589933  0.83415026  0.10642071  1
  H  H48  1  0.62351343  0.76580198  0.19920809  1
  H  H49  1  0.66782343  0.89825860  0.22693240  1
  H  H50  1  0.71658366  0.59402202  0.30298037  1
  H  H51  1  0.75354637  0.52652908  0.50236967  1
  H  H52  1  0.79073387  0.60411392  0.70095164  1
  H  H53  1  0.78398324  0.91072012  0.78129460  1
  H  H54  1  0.84584467  0.78768308  0.81202260  1
  H  H55  1  0.69298322  0.80724213  0.89067066  1
  H  H56  1  0.66329742  0.70879701  0.81988566  1
  H  H57  1  0.61755293  0.83750957  0.80723013  1
  H  H58  1  0.75309793  0.93274180  0.62207352  1
  H  H59  1  0.72162225  0.92714055  0.37828268  1
  Pb  Pb60  1  0.00880432  0.98444449  0.98814687  1
  Pb  Pb61  1  0.02755703  0.49100260  0.00560918  1
  Pb  Pb62  1  0.51237667  0.02973516  0.99941553  1
  Pb  Pb63  1  0.51998423  0.50694195  0.01273652  1
  C  C64  1  0.20997757  0.17217720  0.77121913  1
  C  C65  1  0.21817470  0.21289058  0.68368854  1
  C  C66  1  0.22010800  0.32115500  0.65739331  1
  C  C67  1  0.23872507  0.31778251  0.56942958  1
  C  C68  1  0.26200706  0.31891115  0.42953455  1
  C  C69  1  0.27991263  0.32398287  0.34155043  1
  C  C70  1  0.28266786  0.21627002  0.31299012  1
  C  C71  1  0.29589224  0.17646526  0.22511203  1
  C  C72  1  0.25750064  0.20809635  0.45375747  1
  C  C73  1  0.24555892  0.20732043  0.54312758  1
  C  C74  1  0.17949431  0.79143613  0.77365551  1
  C  C75  1  0.21886737  0.78290789  0.68631283  1
  C  C76  1  0.32309886  0.78346553  0.66052928  1
  C  C77  1  0.31962973  0.76626566  0.57185831  1
  C  C78  1  0.32051998  0.74509085  0.43122401  1
  C  C79  1  0.32534317  0.72753866  0.34267417  1
  C  C80  1  0.22120417  0.72171959  0.31381144  1
  C  C81  1  0.18155210  0.69960290  0.22678379  1
  C  C82  1  0.21371366  0.74693633  0.45506188  1
  C  C83  1  0.21317300  0.75793688  0.54481086  1
  C  C84  1  0.81238133  0.30259742  0.22976191  1
  C  C85  1  0.77626486  0.28307055  0.31669966  1
  C  C86  1  0.67316433  0.27836645  0.34443939  1
  C  C87  1  0.68022707  0.25924440  0.43240688  1
  C  C88  1  0.68320096  0.23638970  0.57245139  1
  C  C89  1  0.68020419  0.22161259  0.66095152  1
  C  C90  1  0.78430006  0.22388905  0.68981022  1
  C  C91  1  0.82164947  0.22237685  0.77927850  1
  C  C92  1  0.78943297  0.24469580  0.54786006  1
  C  C93  1  0.78761298  0.25638240  0.45799517  1
  C  C94  1  0.68941502  0.81157243  0.22755783  1
  C  C95  1  0.71702071  0.77322309  0.31369953  1
  C  C96  1  0.72761478  0.66631818  0.34215348  1
  C  C97  1  0.74590319  0.67381269  0.43052645  1
  C  C98  1  0.76589892  0.67712053  0.57121570  1
  C  C99  1  0.77929908  0.67420465  0.66018998  1
  C  C100  1  0.77386970  0.78212149  0.68794976  1
  C  C101  1  0.77826928  0.82188624  0.77685077  1
  C  C102  1  0.75484833  0.78712790  0.54551075  1
  C  C103  1  0.74404531  0.78509970  0.45536484  1
  I  I104  1  0.25843381  0.96842415  0.99548951  1
  I  I105  1  0.25973580  0.57934910  0.01437167  1
  I  I106  1  0.75918021  0.02159807  0.98630415  1
  I  I107  1  0.76485944  0.45420181  0.02819543  1
  I  I108  1  1.01716732  0.23648653  0.99010014  1
  I  I109  1  0.94809637  0.73495268  0.99587881  1
  I  I110  1  0.40832900  0.27399458  0.01338041  1
  I  I111  1  0.53530242  0.77280811  0.01573904  1
  I  I112  1  0.99324305  0.99641846  0.79482787  1
  I  I113  1  0.00161014  0.98780026  0.21991199  1
  I  I114  1  0.01436140  0.49324734  0.78838887  1
  I  I115  1  0.06031615  0.44627063  0.20145038  1
  I  I116  1  0.50716769  0.00435881  0.78304100  1
  I  I117  1  0.55313346  0.07226373  0.19365172  1
  I  I118  1  0.55609243  0.49398800  0.80238300  1
  I  I119  1  0.50678538  0.51592195  0.20800111  1
  N  N120  1  0.30974872  0.19069848  0.82269908  1
  N  N121  1  0.24841331  0.38557215  0.50000919  1
  N  N122  1  0.20000067  0.19624861  0.16849964  1
  N  N123  1  0.26877068  0.14624063  0.38116255  1
  N  N124  1  0.23333379  0.14407291  0.61418433  1
  N  N125  1  0.20268083  0.69076556  0.82526855  1
  N  N126  1  0.38482109  0.75947219  0.50241425  1
  N  N127  1  0.20134327  0.79150539  0.16531359  1
  N  N128  1  0.15398202  0.73375916  0.38200317  1
  N  N129  1  0.15244886  0.76768666  0.61600950  1
  N  N130  1  0.79766218  0.20607080  0.16979917  1
  N  N131  1  0.61698966  0.24379476  0.50189891  1
  N  N132  1  0.79691691  0.32761986  0.82588479  1
  N  N133  1  0.85047804  0.23763312  0.62104670  1
  N  N134  1  0.84559678  0.26907611  0.38557832  1
  N  N135  1  0.77766483  0.79930580  0.16402390  1
  N  N136  1  0.76211022  0.60834858  0.50100339  1
  N  N137  1  0.68229292  0.79050890  0.82654625  1
  N  N138  1  0.75923895  0.85053484  0.61829668  1
  N  N139  1  0.72777300  0.84509816  0.38249586  1
