# generated using pymatgen
data_H22PbC18(I2N3)2
_symmetry_space_group_name_H-M   'P 1'
_cell_length_a   12.31726859
_cell_length_b   12.18078014
_cell_length_c   23.02600066
_cell_angle_alpha   92.61518954
_cell_angle_beta   91.21853558
_cell_angle_gamma   90.12684362
_symmetry_Int_Tables_number   1
_chemical_formula_structural   H22PbC18(I2N3)2
_chemical_formula_sum   'H88 Pb4 C72 I16 N24'
_cell_volume   3450.28561761
_cell_formula_units_Z   4
loop_
 _symmetry_equiv_pos_site_id
 _symmetry_equiv_pos_as_xyz
  1  'x, y, z'
loop_
 _atom_site_type_symbol
 _atom_site_label
 _atom_site_symmetry_multiplicity
 _atom_site_fract_x
 _atom_site_fract_y
 _atom_site_fract_z
 _atom_site_occupancy
  H  H0  1  0.25101827  0.29515418  0.92129409  1
  H  H1  1  0.16426469  0.29335099  0.86480078  1
  H  H2  1  0.22095917  0.17454310  0.88785582  1
  H  H3  1  0.34668920  0.36058004  0.84265953  1
  H  H4  1  0.39822530  0.23084959  0.86165312  1
  H  H5  1  0.29874100  0.04833340  0.78488242  1
  H  H6  1  0.27079910  0.05205639  0.66844588  1
  H  H7  1  0.27715855  0.46215915  0.63807835  1
  H  H8  1  0.25492552  0.45637731  0.52159563  1
  H  H9  1  0.24941030  0.04354646  0.47832374  1
  H  H10  1  0.22635003  0.03774515  0.36185096  1
  H  H11  1  0.22949820  0.44790485  0.33160958  1
  H  H12  1  0.20042382  0.45157519  0.21523697  1
  H  H13  1  0.10173907  0.26886111  0.13855810  1
  H  H14  1  0.15351710  0.13920689  0.15750663  1
  H  H15  1  0.27881491  0.32533888  0.11210576  1
  H  H16  1  0.33573493  0.20661178  0.13512687  1
  H  H17  1  0.24874988  0.20466542  0.07873186  1
  H  H18  1  0.19404092  0.12154597  0.26301513  1
  H  H19  1  0.23266701  0.36960265  0.42368471  1
  H  H20  1  0.26822382  0.13025117  0.57637566  1
  H  H21  1  0.30764853  0.37826050  0.73704310  1
  H  H22  1  0.29910224  0.75806671  0.91979157  1
  H  H23  1  0.28960799  0.84195071  0.86459826  1
  H  H24  1  0.17730974  0.78252151  0.89085003  1
  H  H25  1  0.35863624  0.65316424  0.83890027  1
  H  H26  1  0.22985582  0.60390190  0.85896347  1
  H  H27  1  0.04936380  0.69304019  0.78620979  1
  H  H28  1  0.05258954  0.72338147  0.67085771  1
  H  H29  1  0.45780900  0.72550303  0.63559753  1
  H  H30  1  0.45367778  0.74893118  0.52008599  1
  H  H31  1  0.04623752  0.74681066  0.47967837  1
  H  H32  1  0.04209081  0.77107721  0.36425173  1
  H  H33  1  0.44732539  0.77626980  0.32918031  1
  H  H34  1  0.45047360  0.80774100  0.21392982  1
  H  H35  1  0.26978578  0.89618229  0.14125115  1
  H  H36  1  0.14110598  0.84652409  0.16122971  1
  H  H37  1  0.32271436  0.71781979  0.10911563  1
  H  H38  1  0.21057302  0.65800764  0.13530656  1
  H  H39  1  0.20084740  0.74211624  0.08021826  1
  H  H40  1  0.12407444  0.80527302  0.26620573  1
  H  H41  1  0.36924790  0.77033015  0.42315967  1
  H  H42  1  0.13060131  0.72874182  0.57687634  1
  H  H43  1  0.37572985  0.69323711  0.73382277  1
  H  H44  1  0.70010453  0.25693320  0.08135209  1
  H  H45  1  0.70689643  0.34135324  0.14053530  1
  H  H46  1  0.82107488  0.28687513  0.11169493  1
  H  H47  1  0.64448743  0.15010041  0.15788313  1
  H  H48  1  0.77441959  0.10527168  0.13441506  1
  H  H49  1  0.95315150  0.19790408  0.21177133  1
  H  H50  1  0.94957082  0.22670325  0.32871821  1
  H  H51  1  0.54375483  0.22235540  0.36278801  1
  H  H52  1  0.54654577  0.24610490  0.47947594  1
  H  H53  1  0.95339705  0.24968747  0.52056848  1
  H  H54  1  0.95617229  0.27416907  0.63724780  1
  H  H55  1  0.55037260  0.27290932  0.67127724  1
  H  H56  1  0.54695312  0.30285568  0.78818771  1
  H  H57  1  0.72588383  0.39482915  0.86537208  1
  H  H58  1  0.85574366  0.34975414  0.84193033  1
  H  H59  1  0.67912438  0.21343880  0.88842915  1
  H  H60  1  0.79317445  0.15867235  0.85958066  1
  H  H61  1  0.80019331  0.24336932  0.91864763  1
  H  H62  1  0.87291821  0.31027978  0.73625185  1
  H  H63  1  0.62961902  0.26792054  0.57725271  1
  H  H64  1  0.87035946  0.23115996  0.42267116  1
  H  H65  1  0.62723215  0.18808127  0.26362551  1
  H  H66  1  0.74773583  0.69871045  0.08005519  1
  H  H67  1  0.66415826  0.70235226  0.13621333  1
  H  H68  1  0.71770773  0.82053940  0.11123175  1
  H  H69  1  0.84893409  0.64014983  0.16008767  1
  H  H70  1  0.89675006  0.77020954  0.13991077  1
  H  H71  1  0.81012669  0.95414496  0.21616712  1
  H  H72  1  0.77862379  0.95141266  0.33156760  1
  H  H73  1  0.77512107  0.54069415  0.36128477  1
  H  H74  1  0.75239029  0.54425174  0.47729043  1
  H  H75  1  0.75196047  0.95586324  0.52292271  1
  H  H76  1  0.72849811  0.95940476  0.63885949  1
  H  H77  1  0.72171106  0.54864915  0.66836913  1
  H  H78  1  0.68909472  0.54599222  0.78367540  1
  H  H79  1  0.60315754  0.73015102  0.85984721  1
  H  H80  1  0.65139917  0.86010333  0.83975112  1
  H  H81  1  0.78196725  0.67942663  0.88879653  1
  H  H82  1  0.83587531  0.79751594  0.86389987  1
  H  H83  1  0.75203210  0.80131461  0.91994178  1
  H  H84  1  0.69708700  0.87623707  0.73594083  1
  H  H85  1  0.73087467  0.62868455  0.57532178  1
  H  H86  1  0.77005185  0.87146991  0.42462825  1
  H  H87  1  0.80465401  0.62391670  0.26403500  1
  Pb  Pb88  1  0.98406504  0.99689469  0.99084100  1
  Pb  Pb89  1  0.01397994  0.49498883  0.99609276  1
  Pb  Pb90  1  0.48594930  0.00515425  0.00392624  1
  Pb  Pb91  1  0.51577990  0.50311388  0.00917872  1
  C  C92  1  0.32903418  0.27213698  0.84110495  1
  C  C93  1  0.30781871  0.22804100  0.78095455  1
  C  C94  1  0.29571331  0.12055602  0.75910971  1
  C  C95  1  0.28216867  0.12315349  0.69813959  1
  C  C96  1  0.28631105  0.23301771  0.68316417  1
  C  C97  1  0.27696476  0.28014790  0.62713723  1
  C  C98  1  0.27308484  0.38848875  0.60975110  1
  C  C99  1  0.26077851  0.38546221  0.54840300  1
  C  C100  1  0.25722396  0.27521370  0.52867010  1
  C  C101  1  0.24542678  0.22466553  0.47130571  1
  C  C102  1  0.24266803  0.11445289  0.45154453  1
  C  C103  1  0.23000208  0.11140205  0.39021182  1
  C  C104  1  0.22509214  0.21971352  0.37287349  1
  C  C105  1  0.21496606  0.26685535  0.31688571  1
  C  C106  1  0.21827506  0.37677654  0.30192548  1
  C  C107  1  0.20412977  0.37935684  0.24098758  1
  C  C108  1  0.19248695  0.27181965  0.21914579  1
  C  C109  1  0.17106560  0.22766176  0.15902527  1
  C  C110  1  0.27154760  0.67205298  0.83881613  1
  C  C111  1  0.22733058  0.68959974  0.77975683  1
  C  C112  1  0.12078404  0.69824103  0.75969254  1
  C  C113  1  0.12299517  0.71290380  0.69920928  1
  C  C114  1  0.23158041  0.71210349  0.68254684  1
  C  C115  1  0.27809822  0.72307839  0.62619744  1
  C  C116  1  0.38534769  0.72896822  0.60801982  1
  C  C117  1  0.38312589  0.74146633  0.54716552  1
  C  C118  1  0.27445664  0.74314620  0.52833630  1
  C  C119  1  0.22543635  0.75422952  0.47156499  1
  C  C120  1  0.11677586  0.75516248  0.45267634  1
  C  C121  1  0.11455006  0.76804945  0.39185809  1
  C  C122  1  0.22177598  0.77491496  0.37375452  1
  C  C123  1  0.26828000  0.78664580  0.31745640  1
  C  C124  1  0.37688471  0.78664175  0.30083983  1
  C  C125  1  0.37906753  0.80189498  0.24041074  1
  C  C126  1  0.27249025  0.81010778  0.22033316  1
  C  C127  1  0.22823702  0.82783885  0.16130126  1
  C  C128  1  0.73114268  0.17174260  0.15805398  1
  C  C129  1  0.77545715  0.19051559  0.21788451  1
  C  C130  1  0.88182942  0.20135000  0.23853219  1
  C  C131  1  0.87929559  0.21540215  0.29975903  1
  C  C132  1  0.77052403  0.21238264  0.31604006  1
  C  C133  1  0.72331169  0.22224607  0.37267624  1
  C  C134  1  0.61582187  0.22670088  0.39077901  1
  C  C135  1  0.61731965  0.23950425  0.45220375  1
  C  C136  1  0.72581635  0.24273103  0.47135141  1
  C  C137  1  0.77415663  0.25464455  0.52864048  1
  C  C138  1  0.88263848  0.25710365  0.54781490  1
  C  C139  1  0.88413253  0.27026884  0.60922850  1
  C  C140  1  0.77664941  0.27569446  0.62728578  1
  C  C141  1  0.72949111  0.28631769  0.68391524  1
  C  C142  1  0.62069498  0.28408392  0.70021315  1
  C  C143  1  0.61824041  0.29872917  0.76141620  1
  C  C144  1  0.72467820  0.30914236  0.78202657  1
  C  C145  1  0.76907087  0.32819612  0.84182145  1
  C  C146  1  0.82976849  0.72804690  0.16057418  1
  C  C147  1  0.81147236  0.77381642  0.22019573  1
  C  C148  1  0.80347695  0.88183735  0.24167540  1
  C  C149  1  0.78824773  0.87979770  0.30232179  1
  C  C150  1  0.78778492  0.76982419  0.31748090  1
  C  C151  1  0.77663838  0.72242728  0.37321769  1
  C  C152  1  0.77145655  0.61379560  0.38995916  1
  C  C153  1  0.75920622  0.61564431  0.45098378  1
  C  C154  1  0.75692874  0.72551621  0.47128153  1
  C  C155  1  0.74574276  0.77461753  0.52879850  1
  C  C156  1  0.74425676  0.88447539  0.54915750  1
  C  C157  1  0.73168492  0.88631247  0.61015762  1
  C  C158  1  0.72550995  0.77768756  0.62682162  1
  C  C159  1  0.71353913  0.73028244  0.68250017  1
  C  C160  1  0.71221560  0.62029189  0.69761130  1
  C  C161  1  0.69639465  0.61828357  0.75820728  1
  C  C162  1  0.68888231  0.72633352  0.77970705  1
  C  C163  1  0.67035326  0.77216198  0.83929123  1
  I  I164  1  0.23269180  0.06701793  0.99199062  1
  I  I165  1  0.26722706  0.43282472  0.00802789  1
  I  I166  1  0.73286302  0.93063420  0.00753042  1
  I  I167  1  0.76705553  0.56932617  0.99249419  1
  I  I168  1  0.92736398  0.25030344  0.00568421  1
  I  I169  1  0.07069762  0.74920842  0.99202343  1
  I  I170  1  0.57283660  0.24972801  0.99434385  1
  I  I171  1  0.42935543  0.75084764  0.00797956  1
  I  I172  1  0.94317625  0.98591689  0.84831230  1
  I  I173  1  0.98424220  0.99115921  0.12602617  1
  I  I174  1  0.04330122  0.46022436  0.85495106  1
  I  I175  1  0.02536380  0.50582343  0.13326301  1
  I  I176  1  0.47451780  0.99410786  0.86679941  1
  I  I177  1  0.45668387  0.03985774  0.14515327  1
  I  I178  1  0.51582998  0.50891868  0.87392920  1
  I  I179  1  0.55670181  0.51410535  0.15162503  1
  N  N180  1  0.23474729  0.25634984  0.88063926  1
  N  N181  1  0.26515053  0.24352537  0.11935910  1
  N  N182  1  0.19977609  0.20460598  0.26586902  1
  N  N183  1  0.23426990  0.28654235  0.42284123  1
  N  N184  1  0.26757129  0.21335370  0.57717707  1
  N  N185  1  0.30139131  0.29524172  0.73419710  1
  N  N186  1  0.25788799  0.77077790  0.88049193  1
  N  N187  1  0.24211274  0.72932927  0.11949577  1
  N  N188  1  0.20624374  0.80056181  0.26774821  1
  N  N189  1  0.28719224  0.76649620  0.42287902  1
  N  N190  1  0.21268510  0.73167849  0.57708520  1
  N  N191  1  0.29358554  0.69828078  0.73228016  1
  N  N192  1  0.74113627  0.27116873  0.12128950  1
  N  N193  1  0.75905622  0.22899117  0.87875226  1
  N  N194  1  0.79105184  0.30085413  0.73433797  1
  N  N195  1  0.71178736  0.26640728  0.57760852  1
  N  N196  1  0.78819908  0.23174102  0.42234912  1
  N  N197  1  0.70900985  0.19796124  0.26557867  1
  N  N198  1  0.73267131  0.73955010  0.12005467  1
  N  N199  1  0.76720888  0.76045140  0.87996195  1
  N  N200  1  0.69974837  0.79305047  0.73312227  1
  N  N201  1  0.73412063  0.71174944  0.57669911  1
  N  N202  1  0.76778127  0.78838526  0.42332188  1
  N  N203  1  0.80149280  0.70709625  0.26683866  1
