# generated using pymatgen
data_H12PbC10I4N2O3
_symmetry_space_group_name_H-M   'P 1'
_cell_length_a   12.24854425
_cell_length_b   12.23192222
_cell_length_c   16.09617170
_cell_angle_alpha   89.22577683
_cell_angle_beta   89.42999961
_cell_angle_gamma   89.40343295
_symmetry_Int_Tables_number   1
_chemical_formula_structural   H12PbC10I4N2O3
_chemical_formula_sum   'H48 Pb4 C40 I16 N8 O12'
_cell_volume   2411.11372836
_cell_formula_units_Z   4
loop_
 _symmetry_equiv_pos_site_id
 _symmetry_equiv_pos_as_xyz
  1  'x, y, z'
loop_
 _atom_site_type_symbol
 _atom_site_label
 _atom_site_symmetry_multiplicity
 _atom_site_fract_x
 _atom_site_fract_y
 _atom_site_fract_z
 _atom_site_occupancy
  H  H0  1  0.38779840  0.23617381  0.80950881  1
  H  H1  1  0.28446747  0.31769890  0.84334791  1
  H  H2  1  0.30137775  0.19366423  0.88441331  1
  H  H3  1  0.25765332  0.10063639  0.76182965  1
  H  H4  1  0.15065275  0.19003083  0.79268330  1
  H  H5  1  0.23370012  0.41873475  0.69479307  1
  H  H6  1  0.26411791  0.41512217  0.30608526  1
  H  H7  1  0.33794717  0.12854800  0.23378865  1
  H  H8  1  0.19278937  0.13390554  0.23151929  1
  H  H9  1  0.27518066  0.22819320  0.11637197  1
  H  H10  1  0.20214233  0.31870867  0.17358616  1
  H  H11  1  0.33887805  0.31836398  0.17780549  1
  H  H12  1  0.23055529  0.61294492  0.81567172  1
  H  H13  1  0.30727775  0.71532064  0.85167646  1
  H  H14  1  0.17970451  0.70085817  0.88433158  1
  H  H15  1  0.09979403  0.74929825  0.75777929  1
  H  H16  1  0.19142768  0.85179174  0.78808769  1
  H  H17  1  0.42027232  0.76339795  0.69420602  1
  H  H18  1  0.41305934  0.73427504  0.30461822  1
  H  H19  1  0.12333941  0.65747157  0.24106746  1
  H  H20  1  0.12710194  0.80305632  0.23142997  1
  H  H21  1  0.21196388  0.71283172  0.11711178  1
  H  H22  1  0.30692657  0.78387869  0.16581110  1
  H  H23  1  0.30592284  0.64742631  0.17772303  1
  H  H24  1  0.75110314  0.12094046  0.19118747  1
  H  H25  1  0.67770714  0.22739964  0.15466481  1
  H  H26  1  0.80101469  0.20261001  0.11504590  1
  H  H27  1  0.89579354  0.24527581  0.23628268  1
  H  H28  1  0.80967757  0.35553744  0.20552451  1
  H  H29  1  0.57950254  0.27558783  0.30480593  1
  H  H30  1  0.58696506  0.24420660  0.69304950  1
  H  H31  1  0.86986420  0.16199761  0.76572966  1
  H  H32  1  0.87040889  0.30745634  0.76773223  1
  H  H33  1  0.77176874  0.22946416  0.88243347  1
  H  H34  1  0.68475045  0.30466839  0.82403474  1
  H  H35  1  0.68084239  0.16749668  0.82026789  1
  H  H36  1  0.88626096  0.77065928  0.19015300  1
  H  H37  1  0.78857585  0.68729376  0.15274149  1
  H  H38  1  0.79933720  0.81465938  0.11720708  1
  H  H39  1  0.74552801  0.89691657  0.24156838  1
  H  H40  1  0.64628318  0.80278283  0.20955567  1
  H  H41  1  0.72627346  0.57762002  0.30812398  1
  H  H42  1  0.75633983  0.58668133  0.69695022  1
  H  H43  1  0.84257712  0.87211667  0.76110374  1
  H  H44  1  0.69789263  0.87620664  0.76926773  1
  H  H45  1  0.78031236  0.78305446  0.88399021  1
  H  H46  1  0.70603554  0.69255607  0.83258676  1
  H  H47  1  0.84201081  0.68757354  0.82287491  1
  Pb  Pb48  1  0.01449819  0.99929017  0.00829420  1
  Pb  Pb49  1  0.99802489  0.48659686  0.99655197  1
  Pb  Pb50  1  0.50833175  0.99534214  0.00153242  1
  Pb  Pb51  1  0.50640241  0.50268470  0.99446833  1
  C  C52  1  0.23372019  0.18706878  0.76609407  1
  C  C53  1  0.24250621  0.23966273  0.68298740  1
  C  C54  1  0.24130402  0.34720904  0.65597697  1
  C  C55  1  0.24988927  0.34073015  0.56853978  1
  C  C56  1  0.25873299  0.33905578  0.43497555  1
  C  C57  1  0.26269220  0.34417819  0.34713026  1
  C  C58  1  0.26464089  0.23628946  0.32373622  1
  C  C59  1  0.26633486  0.18326418  0.24131047  1
  C  C60  1  0.25899829  0.22999914  0.45963792  1
  C  C61  1  0.25407642  0.23099159  0.54729833  1
  C  C62  1  0.18665567  0.76821923  0.76415173  1
  C  C63  1  0.24151115  0.75471622  0.68254099  1
  C  C64  1  0.34885070  0.75618498  0.65540240  1
  C  C65  1  0.34214860  0.74842653  0.56794188  1
  C  C66  1  0.33927586  0.74092255  0.43415666  1
  C  C67  1  0.34283450  0.73648227  0.34613127  1
  C  C68  1  0.23458945  0.73369386  0.32379214  1
  C  C69  1  0.17733713  0.72905026  0.24308025  1
  C  C70  1  0.23077344  0.74017831  0.45948919  1
  C  C71  1  0.23248718  0.74440108  0.54694710  1
  C  C72  1  0.81028815  0.27243787  0.23253240  1
  C  C73  1  0.75857656  0.26493219  0.31591966  1
  C  C74  1  0.65143549  0.26736782  0.34329412  1
  C  C75  1  0.65887525  0.25787452  0.43066372  1
  C  C76  1  0.66182398  0.24817923  0.56413791  1
  C  C77  1  0.65749178  0.24446191  0.65194916  1
  C  C78  1  0.76535836  0.24027395  0.67509599  1
  C  C79  1  0.81830314  0.23591812  0.75764483  1
  C  C80  1  0.77050239  0.24592327  0.53918316  1
  C  C81  1  0.76865911  0.25168855  0.45151635  1
  C  C82  1  0.72839314  0.80955591  0.23578297  1
  C  C83  1  0.73928984  0.75639410  0.31832511  1
  C  C84  1  0.73575248  0.64923678  0.34633335  1
  C  C85  1  0.74457181  0.65661153  0.43361913  1
  C  C86  1  0.75261958  0.66034335  0.56720153  1
  C  C87  1  0.75632401  0.65696000  0.65516966  1
  C  C88  1  0.76144974  0.76528543  0.67700814  1
  C  C89  1  0.76858864  0.82158570  0.75784577  1
  C  C90  1  0.75588947  0.76879838  0.54122069  1
  C  C91  1  0.75123750  0.76650956  0.45373443  1
  I  I92  1  0.25819119  0.08125536  0.00963652  1
  I  I93  1  0.25135008  0.44726454  0.96346078  1
  I  I94  1  0.76038236  0.93160687  0.99354054  1
  I  I95  1  0.75076469  0.57473760  0.02050217  1
  I  I96  1  0.91734266  0.24209987  0.99129108  1
  I  I97  1  0.06091000  0.74131598  0.01408262  1
  I  I98  1  0.55840237  0.25246328  0.01868238  1
  I  I99  1  0.41906105  0.75521176  0.98491439  1
  I  I100  1  0.00971684  0.99677009  0.81365451  1
  I  I101  1  0.98026523  0.99747729  0.20882838  1
  I  I102  1  0.98070232  0.53096217  0.79859941  1
  I  I103  1  0.04354691  0.45852260  0.18998294  1
  I  I104  1  0.51919482  0.03567924  0.80051495  1
  I  I105  1  0.50882360  -0.00267787  0.19722875  1
  I  I106  1  0.54024108  0.47622962  0.79920448  1
  I  I107  1  0.45459798  0.50233552  0.19334556  1
  N  N108  1  0.30698380  0.23798700  0.82842239  1
  N  N109  1  0.27131683  0.26755417  0.17345981  1
  N  N110  1  0.22989424  0.69421041  0.83166252  1
  N  N111  1  0.25594710  0.71769157  0.17232380  1
  N  N112  1  0.75569709  0.20095458  0.17059711  1
  N  N113  1  0.73345430  0.23420471  0.82487811  1
  N  N114  1  0.80634889  0.76617360  0.17126053  1
  N  N115  1  0.77448409  0.74091759  0.82818473  1
  O  O116  1  0.25323366  0.41050097  0.50053318  1
  O  O117  1  0.26283142  0.16429324  0.39166965  1
  O  O118  1  0.25066692  0.16673141  0.61693919  1
  O  O119  1  0.41117334  0.74580840  0.49954219  1
  O  O120  1  0.16408481  0.73563698  0.39226969  1
  O  O121  1  0.16858271  0.74713831  0.61634854  1
  O  O122  1  0.58987703  0.25532608  0.49889131  1
  O  O123  1  0.83670301  0.24083209  0.60703968  1
  O  O124  1  0.83210210  0.25485282  0.38166947  1
  O  O125  1  0.74580485  0.58799798  0.50240523  1
  O  O126  1  0.76144922  0.83578391  0.60817754  1
  O  O127  1  0.74917117  0.82985798  0.38378114  1
