# generated using pymatgen
data_H12PbC12I4(NO2)2
_symmetry_space_group_name_H-M   'P 1'
_cell_length_a   12.06494770
_cell_length_b   12.00888413
_cell_length_c   17.47975189
_cell_angle_alpha   87.32676311
_cell_angle_beta   88.95640940
_cell_angle_gamma   90.91228213
_symmetry_Int_Tables_number   1
_chemical_formula_structural   H12PbC12I4(NO2)2
_chemical_formula_sum   'H48 Pb4 C48 I16 N8 O16'
_cell_volume   2529.04880113
_cell_formula_units_Z   4
loop_
 _symmetry_equiv_pos_site_id
 _symmetry_equiv_pos_as_xyz
  1  'x, y, z'
loop_
 _atom_site_type_symbol
 _atom_site_label
 _atom_site_symmetry_multiplicity
 _atom_site_fract_x
 _atom_site_fract_y
 _atom_site_fract_z
 _atom_site_occupancy
  H  H0  1  0.18400939  0.21859371  0.83416436  1
  H  H1  1  0.29318614  0.23443740  0.89033246  1
  H  H2  1  0.30783388  0.15576072  0.81533316  1
  H  H3  1  0.27486300  0.40241743  0.81188048  1
  H  H4  1  0.40171045  0.33257638  0.79749889  1
  H  H5  1  0.25458915  0.49966303  0.66648849  1
  H  H6  1  0.19011593  0.10488822  0.18069019  1
  H  H7  1  0.10058663  0.21470090  0.20455123  1
  H  H8  1  0.33012090  0.24013482  0.14073711  1
  H  H9  1  0.26631770  0.34399156  0.18378780  1
  H  H10  1  0.21156247  0.28806078  0.10738128  1
  H  H11  1  0.24967125  0.00148822  0.32263980  1
  H  H12  1  0.23744812  0.84375290  0.81816510  1
  H  H13  1  0.24332218  0.74210888  0.88698736  1
  H  H14  1  0.16066565  0.72367226  0.81312405  1
  H  H15  1  0.40908223  0.73331761  0.81157228  1
  H  H16  1  0.32284621  0.61356073  0.80771413  1
  H  H17  1  0.50547737  0.73031945  0.66577231  1
  H  H18  1  0.10397748  0.80051441  0.17399387  1
  H  H19  1  0.22894577  0.87788667  0.18673501  1
  H  H20  1  0.21194355  0.63625605  0.15749430  1
  H  H21  1  0.33124544  0.70267960  0.17869237  1
  H  H22  1  0.26374483  0.74261223  0.09953704  1
  H  H23  1  0.00247175  0.76552772  0.31788211  1
  H  H24  1  0.77802069  0.31411749  0.16839686  1
  H  H25  1  0.76919007  0.20071199  0.11714453  1
  H  H26  1  0.83973157  0.19163645  0.19779330  1
  H  H27  1  0.59582050  0.22698027  0.18603557  1
  H  H28  1  0.66072334  0.09657534  0.20397360  1
  H  H29  1  0.49438456  0.23335581  0.33374383  1
  H  H30  1  0.90573849  0.30422668  0.81952135  1
  H  H31  1  0.79252399  0.39389803  0.79706671  1
  H  H32  1  0.77737535  0.15483027  0.84764891  1
  H  H33  1  0.66966590  0.22448186  0.81074053  1
  H  H34  1  0.72707882  0.26473799  0.89062809  1
  H  H35  1  0.00563769  0.26006553  0.67538422  1
  H  H36  1  0.65409886  0.77859636  0.18646252  1
  H  H37  1  0.74889487  0.76887761  0.11477181  1
  H  H38  1  0.77755214  0.84707472  0.18809655  1
  H  H39  1  0.75999601  0.59817457  0.18921733  1
  H  H40  1  0.88208609  0.68125482  0.19221901  1
  H  H41  1  0.76302185  0.49655711  0.33679943  1
  H  H42  1  0.69986490  0.89956960  0.82066074  1
  H  H43  1  0.61580950  0.77936648  0.80810760  1
  H  H44  1  0.85653272  0.78097525  0.83965191  1
  H  H45  1  0.78362986  0.66636079  0.81778808  1
  H  H46  1  0.75000956  0.73338578  0.89642475  1
  H  H47  1  0.74147691  0.00221702  0.67517515  1
  Pb  Pb48  1  0.98741681  0.99872227  0.00369133  1
  Pb  Pb49  1  0.02019954  0.51099130  0.99408110  1
  Pb  Pb50  1  0.49095769  0.98887778  0.00366283  1
  Pb  Pb51  1  0.52256004  0.48913540  0.01018006  1
  C  C52  1  0.31168332  0.32844358  0.78760482  1
  C  C53  1  0.28638749  0.32658397  0.70508493  1
  C  C54  1  0.26796792  0.41370070  0.65295536  1
  C  C55  1  0.27184328  0.36465900  0.58108660  1
  C  C56  1  0.26097365  0.29677627  0.46969639  1
  C  C57  1  0.24950506  0.25178754  0.39743845  1
  C  C58  1  0.22513127  0.17724670  0.28678034  1
  C  C59  1  0.18657911  0.18580373  0.20703076  1
  C  C60  1  0.24724817  0.08837912  0.33690525  1
  C  C61  1  0.26271415  0.13743013  0.40826999  1
  C  C62  1  0.28049767  0.20505700  0.52016720  1
  C  C63  1  0.28933046  0.25099105  0.59289005  1
  C  C64  1  0.33092368  0.70213920  0.78883614  1
  C  C65  1  0.33126169  0.71974552  0.70455364  1
  C  C66  1  0.41822045  0.72622041  0.65225657  1
  C  C67  1  0.36702490  0.72267734  0.58037694  1
  C  C68  1  0.29765333  0.73340667  0.46784023  1
  C  C69  1  0.25230502  0.74360384  0.39450617  1
  C  C70  1  0.17774528  0.76889378  0.28182416  1
  C  C71  1  0.18669102  0.79691443  0.19879315  1
  C  C72  1  0.08897886  0.75852018  0.33269570  1
  C  C73  1  0.13791722  0.74198343  0.40526476  1
  C  C74  1  0.20608741  0.72550697  0.51866495  1
  C  C75  1  0.25271832  0.71683416  0.59210725  1
  C  C76  1  0.66669422  0.18655749  0.21366604  1
  C  C77  1  0.66670099  0.20932009  0.29610351  1
  C  C78  1  0.58107831  0.22412641  0.34760361  1
  C  C79  1  0.63286491  0.22292706  0.41950273  1
  C  C80  1  0.70493578  0.23777171  0.53036128  1
  C  C81  1  0.75272049  0.25029493  0.60216578  1
  C  C82  1  0.83184892  0.27751955  0.71176218  1
  C  C83  1  0.82491890  0.30923864  0.79210875  1
  C  C84  1  0.91839590  0.25920661  0.66156082  1
  C  C85  1  0.86652290  0.24179323  0.59096392  1
  C  C86  1  0.79469033  0.22181814  0.48003241  1
  C  C87  1  0.74620133  0.21031783  0.40802459  1
  C  C88  1  0.79466162  0.67486987  0.21166992  1
  C  C89  1  0.78202810  0.67171876  0.29600848  1
  C  C90  1  0.77219639  0.58378639  0.34931355  1
  C  C91  1  0.77742644  0.63412333  0.42074293  1
  C  C92  1  0.76525855  0.70376121  0.53179982  1
  C  C93  1  0.75271387  0.74994279  0.60375915  1
  C  C94  1  0.72638296  0.82614548  0.71392381  1
  C  C95  1  0.69829539  0.81718333  0.79631813  1
  C  C96  1  0.74267220  0.91495598  0.66186103  1
  C  C97  1  0.75930163  0.86493610  0.59088394  1
  C  C98  1  0.77849654  0.79568272  0.47965994  1
  C  C99  1  0.78770785  0.74887833  0.40743373  1
  I  I100  1  0.23684392  0.91794244  0.99839710  1
  I  I101  1  0.27287076  0.55733394  0.97589815  1
  I  I102  1  0.73803510  0.08040600  0.00771647  1
  I  I103  1  0.76938668  0.44887010  0.04693577  1
  I  I104  1  0.06054920  0.25590492  0.97594475  1
  I  I105  1  0.91538502  0.75060649  0.01680880  1
  I  I106  1  0.42506525  0.24276926  0.00357307  1
  I  I107  1  0.56292923  0.74674560  0.98057480  1
  I  I108  1  0.97375773  0.99100400  0.82271865  1
  I  I109  1  0.94005400  0.99427634  0.19494289  1
  I  I110  1  0.01511169  0.56471885  0.80860317  1
  I  I111  1  0.05978317  0.48717567  0.17720987  1
  I  I112  1  0.48540680  0.03889304  0.81356683  1
  I  I113  1  0.48276641  0.92903356  0.18437481  1
  I  I114  1  0.58328620  0.49129131  0.82678504  1
  I  I115  1  0.46553941  0.48942426  0.19115141  1
  N  N116  1  0.26917752  0.22763935  0.83354996  1
  N  N117  1  0.25341276  0.26921369  0.15750079  1
  N  N118  1  0.23712507  0.75859324  0.82817418  1
  N  N119  1  0.25325075  0.71376402  0.15623983  1
  N  N120  1  0.77051221  0.22792540  0.17318744  1
  N  N121  1  0.74472144  0.23334013  0.83782316  1
  N  N122  1  0.73819063  0.77279446  0.17375457  1
  N  N123  1  0.77802493  0.74453743  0.83988539  1
  O  O124  1  0.25497904  0.39621307  0.50530490  1
  O  O125  1  0.22598419  0.27881866  0.32335088  1
  O  O126  1  0.28271172  0.10537788  0.48393251  1
  O  O127  1  0.30020123  0.22530258  0.66924088  1
  O  O128  1  0.39791059  0.73212902  0.50393062  1
  O  O129  1  0.27948334  0.76037236  0.31911582  1
  O  O130  1  0.10603999  0.72999748  0.48182354  1
  O  O131  1  0.22815661  0.71318705  0.66873755  1
  O  O132  1  0.60408699  0.23917457  0.49496108  1
  O  O133  1  0.72869307  0.27242630  0.67602184  1
  O  O134  1  0.89566148  0.22342830  0.51566071  1
  O  O135  1  0.76943644  0.20044607  0.33209726  1
  O  O136  1  0.76425139  0.60301172  0.49748823  1
  O  O137  1  0.73179633  0.72337745  0.67901740  1
  O  O138  1  0.77588573  0.89646934  0.51427630  1
  O  O139  1  0.79244392  0.77446065  0.33064081  1
