# generated using pymatgen
data_H14PbC10I4(NO)2
_symmetry_space_group_name_H-M   'P 1'
_cell_length_a   12.46156221
_cell_length_b   12.46179583
_cell_length_c   14.30560604
_cell_angle_alpha   86.05792384
_cell_angle_beta   86.05780749
_cell_angle_gamma   90.05885367
_symmetry_Int_Tables_number   1
_chemical_formula_structural   H14PbC10I4(NO)2
_chemical_formula_sum   'H56 Pb4 C40 I16 N8 O8'
_cell_volume   2211.02982933
_cell_formula_units_Z   4
loop_
 _symmetry_equiv_pos_site_id
 _symmetry_equiv_pos_as_xyz
  1  'x, y, z'
loop_
 _atom_site_type_symbol
 _atom_site_label
 _atom_site_symmetry_multiplicity
 _atom_site_fract_x
 _atom_site_fract_y
 _atom_site_fract_z
 _atom_site_occupancy
  H  H0  1  0.37503028  0.26738702  0.79794122  1
  H  H1  1  0.28461393  0.17527596  0.77828979  1
  H  H2  1  0.28404853  0.22513362  0.88285083  1
  H  H3  1  0.24251160  0.40639959  0.81154290  1
  H  H4  1  0.13870349  0.30878435  0.80739057  1
  H  H5  1  0.24109825  0.52146661  0.63174318  1
  H  H6  1  0.23754483  0.44871576  0.45554830  1
  H  H7  1  0.23646035  0.04831736  0.54512942  1
  H  H8  1  0.23595854  0.97759583  0.36791198  1
  H  H9  1  0.13128520  0.19108994  0.20564099  1
  H  H10  1  0.23434222  0.09338930  0.19010918  1
  H  H11  1  0.28218751  0.27244797  0.11507171  1
  H  H12  1  0.28055961  0.32501622  0.21923890  1
  H  H13  1  0.36785655  0.22891129  0.19227127  1
  H  H14  1  0.27103920  0.63215678  0.80772426  1
  H  H15  1  0.17496780  0.71948411  0.78074705  1
  H  H16  1  0.22752386  0.71783676  0.88492074  1
  H  H17  1  0.40660572  0.76563380  0.80989771  1
  H  H18  1  0.30893176  0.86871533  0.79435401  1
  H  H19  1  0.52241265  0.76403021  0.63209127  1
  H  H20  1  0.45169301  0.76353463  0.45487180  1
  H  H21  1  0.05128353  0.76245734  0.54445551  1
  H  H22  1  0.97852778  0.75890843  0.36826083  1
  H  H23  1  0.19121154  0.86129914  0.19261214  1
  H  H24  1  0.09359642  0.75749196  0.18845730  1
  H  H25  1  0.27486277  0.71595868  0.11715023  1
  H  H26  1  0.32472566  0.71540010  0.22170933  1
  H  H27  1  0.23261859  0.62497729  0.20206459  1
  H  H28  1  0.73262228  0.12497742  0.20206385  1
  H  H29  1  0.82472615  0.21540140  0.22171081  1
  H  H30  1  0.77486441  0.21596121  0.11715116  1
  H  H31  1  0.59359616  0.25749062  0.18845727  1
  H  H32  1  0.69121005  0.36129838  0.19261380  1
  H  H33  1  0.47852844  0.25890573  0.36826345  1
  H  H34  1  0.55128528  0.26245749  0.54445745  1
  H  H35  1  0.95169700  0.26353782  0.45487097  1
  H  H36  1  0.02241091  0.26403081  0.63209240  1
  H  H37  1  0.80893013  0.36870994  0.79435685  1
  H  H38  1  0.90660297  0.26562769  0.80989780  1
  H  H39  1  0.72752125  0.21782991  0.88491837  1
  H  H40  1  0.67496456  0.21948400  0.78074451  1
  H  H41  1  0.77103365  0.13215269  0.80771902  1
  H  H42  1  0.86785327  0.72892609  0.19226968  1
  H  H43  1  0.78055369  0.82502476  0.21924461  1
  H  H44  1  0.78217964  0.77246285  0.11507492  1
  H  H45  1  0.73434787  0.59339703  0.19010758  1
  H  H46  1  0.63128488  0.69109060  0.20563968  1
  H  H47  1  0.73595966  0.47759772  0.36790919  1
  H  H48  1  0.73646021  0.54831815  0.54512815  1
  H  H49  1  0.73754432  0.94871574  0.45555081  1
  H  H50  1  0.74109729  0.02146626  0.63174623  1
  H  H51  1  0.63870211  0.80878559  0.80739228  1
  H  H52  1  0.74251667  0.90639403  0.81154446  1
  H  H53  1  0.78404597  0.72512504  0.88284922  1
  H  H54  1  0.78460234  0.67526883  0.77828820  1
  H  H55  1  0.87502677  0.76737311  0.79793709  1
  Pb  Pb56  1  -0.00283742  1.00286501  0.99716583  1
  Pb  Pb57  1  -0.00287506  0.50283751  0.00283106  1
  Pb  Pb58  1  0.49712943  1.00284310  0.00283070  1
  Pb  Pb59  1  0.49714642  0.50287664  0.99717239  1
  C  C60  1  0.22018651  0.33308224  0.77924492  1
  C  C61  1  0.22954458  0.35004462  0.67572912  1
  C  C62  1  0.23633229  0.43862534  0.61369314  1
  C  C63  1  0.23357342  0.40098646  0.52200973  1
  C  C64  1  0.22650626  0.29054974  0.53347556  1
  C  C65  1  0.22401693  0.20713053  0.46988616  1
  C  C66  1  0.23041899  0.09667353  0.47976540  1
  C  C67  1  0.22931546  0.05980142  0.38766672  1
  C  C68  1  0.22039747  0.14879019  0.32750544  1
  C  C69  1  0.21196335  0.16650209  0.22515061  1
  C  C70  1  0.33350160  0.78803114  0.77485083  1
  C  C71  1  0.35121490  0.77959357  0.67249694  1
  C  C72  1  0.44020994  0.77067489  0.61233498  1
  C  C73  1  0.40333422  0.76957521  0.52023608  1
  C  C74  1  0.29287640  0.77597910  0.53011288  1
  C  C75  1  0.20945058  0.77349249  0.46652571  1
  C  C76  1  0.09901304  0.76642837  0.47799199  1
  C  C77  1  0.06136828  0.76367033  0.38630997  1
  C  C78  1  0.14995425  0.77045687  0.32427198  1
  C  C79  1  0.16691401  0.77981779  0.22075701  1
  C  C80  1  0.66691311  0.27981656  0.22075729  1
  C  C81  1  0.64995476  0.27045482  0.32427216  1
  C  C82  1  0.56136759  0.26366827  0.38631256  1
  C  C83  1  0.59901563  0.26642835  0.47799158  1
  C  C84  1  0.70945005  0.27349360  0.46652493  1
  C  C85  1  0.79288025  0.27598086  0.53011092  1
  C  C86  1  0.90333433  0.26957767  0.52023744  1
  C  C87  1  0.94021095  0.27067515  0.61233462  1
  C  C88  1  0.85121239  0.27959312  0.67249680  1
  C  C89  1  0.83349975  0.28802742  0.77485151  1
  C  C90  1  0.71196402  0.66650713  0.22515064  1
  C  C91  1  0.72039705  0.64879370  0.32750461  1
  C  C92  1  0.72931535  0.55980626  0.38766424  1
  C  C93  1  0.73041852  0.59667491  0.47976348  1
  C  C94  1  0.72401534  0.70713265  0.46988584  1
  C  C95  1  0.72650462  0.79054765  0.53347672  1
  C  C96  1  0.73357257  0.90098583  0.52201174  1
  C  C97  1  0.73633125  0.93862178  0.61369595  1
  C  C98  1  0.72954351  0.85004303  0.67573103  1
  C  C99  1  0.72018647  0.83307930  0.77924571  1
  I  I100  1  0.24745981  -0.00595044  0.99055556  1
  I  I101  1  0.24579564  0.51588944  0.00268505  1
  I  I102  1  0.74579959  0.01588857  0.00268481  1
  I  I103  1  0.74745536  0.49404994  0.99055582  1
  I  I104  1  1.00595658  0.25253996  0.00944686  1
  I  I105  1  0.98413694  0.75420277  0.99730555  1
  I  I106  1  0.48414049  0.25420871  0.99730216  1
  I  I107  1  0.50595748  0.75254486  0.00945399  1
  I  I108  1  0.98955364  1.00346232  0.77620180  1
  I  I109  1  0.94071301  0.99079019  0.23024398  1
  I  I110  1  0.00921143  0.55928050  0.76975800  1
  I  I111  1  -0.00347468  0.51046218  0.22379720  1
  I  I112  1  0.50919042  0.05927371  0.76974508  1
  I  I113  1  0.49650619  0.01046879  0.22379622  1
  I  I114  1  0.48954427  0.50346868  0.77620365  1
  I  I115  1  0.44071217  0.49079039  0.23024429  1
  N  N116  1  0.29506194  0.24505129  0.81152622  1
  N  N117  1  0.28933447  0.25393963  0.18580040  1
  N  N118  1  0.24603719  0.71068643  0.81419267  1
  N  N119  1  0.25494928  0.70494610  0.18847492  1
  N  N120  1  0.75495100  0.20494689  0.18847652  1
  N  N121  1  0.74603313  0.21068246  0.81418895  1
  N  N122  1  0.78933048  0.75395013  0.18580277  1
  N  N123  1  0.79505785  0.74504282  0.81152402  1
  O  O124  1  0.21673630  0.24043937  0.37665055  1
  O  O125  1  0.22309890  0.25786398  0.62772710  1
  O  O126  1  0.24213645  0.77689924  0.37227438  1
  O  O127  1  0.25956617  0.78325881  0.62335003  1
  O  O128  1  0.75956436  0.28325980  0.62334746  1
  O  O129  1  0.74213761  0.27689898  0.37227260  1
  O  O130  1  0.72309694  0.75786351  0.62772813  1
  O  O131  1  0.71673376  0.74044074  0.37665160  1
