# generated using pymatgen
data_H16PbC14I4N2O3
_symmetry_space_group_name_H-M   'P 1'
_cell_length_a   12.11829438
_cell_length_b   12.17506777
_cell_length_c   19.37412573
_cell_angle_alpha   90.88414451
_cell_angle_beta   90.64834723
_cell_angle_gamma   89.46810671
_symmetry_Int_Tables_number   1
_chemical_formula_structural   H16PbC14I4N2O3
_chemical_formula_sum   'H64 Pb4 C56 I16 N8 O12'
_cell_volume   2857.83703944
_cell_formula_units_Z   4
loop_
 _symmetry_equiv_pos_site_id
 _symmetry_equiv_pos_as_xyz
  1  'x, y, z'
loop_
 _atom_site_type_symbol
 _atom_site_label
 _atom_site_symmetry_multiplicity
 _atom_site_fract_x
 _atom_site_fract_y
 _atom_site_fract_z
 _atom_site_occupancy
  H  H0  1  0.37778154  0.27118689  0.83557477  1
  H  H1  1  0.29320537  0.30034245  0.90079064  1
  H  H2  1  0.30064172  0.17116910  0.87195549  1
  H  H3  1  0.13246715  0.25683464  0.83325295  1
  H  H4  1  0.20859353  0.36737949  0.79993783  1
  H  H5  1  0.19855151  0.04424226  0.74772428  1
  H  H6  1  0.22585950  0.04582835  0.60773709  1
  H  H7  1  0.24726355  0.45845608  0.57909840  1
  H  H8  1  0.26275044  0.46400439  0.43810284  1
  H  H9  1  0.26772100  0.05359940  0.39071907  1
  H  H10  1  0.27926654  0.05630504  0.25013434  1
  H  H11  1  0.21895382  0.35694419  0.19449645  1
  H  H12  1  0.36360027  0.33460821  0.19423190  1
  H  H13  1  0.20020603  0.16967837  0.14260108  1
  H  H14  1  0.27241629  0.25680437  0.09447778  1
  H  H15  1  0.33816610  0.15706478  0.14015617  1
  H  H16  1  0.25607345  0.62485206  0.83438096  1
  H  H17  1  0.29129021  0.70638788  0.90144830  1
  H  H18  1  0.16192485  0.71049538  0.87200398  1
  H  H19  1  0.25815125  0.86955269  0.83600927  1
  H  H20  1  0.36621805  0.78607363  0.80246539  1
  H  H21  1  0.04168614  0.80212292  0.74893990  1
  H  H22  1  0.04590826  0.77403885  0.60869640  1
  H  H23  1  0.46152466  0.75386139  0.57995267  1
  H  H24  1  0.46735412  0.73621254  0.43872151  1
  H  H25  1  0.05451968  0.73177271  0.39466406  1
  H  H26  1  0.05402096  0.71949857  0.25393343  1
  H  H27  1  0.35167676  0.78098929  0.19526510  1
  H  H28  1  0.33207904  0.63693781  0.19138790  1
  H  H29  1  0.16308673  0.80456841  0.14841365  1
  H  H30  1  0.24675004  0.72945769  0.09602602  1
  H  H31  1  0.14832358  0.66689112  0.14277773  1
  H  H32  1  0.74810112  0.13020644  0.15756385  1
  H  H33  1  0.69695302  0.21378774  0.09743804  1
  H  H34  1  0.82949357  0.22181049  0.11910906  1
  H  H35  1  0.73875546  0.37420623  0.17066193  1
  H  H36  1  0.63170664  0.29005073  0.20050822  1
  H  H37  1  0.95737540  0.29533441  0.25115817  1
  H  H38  1  0.95516097  0.26885047  0.39129094  1
  H  H39  1  0.54039448  0.25655406  0.42184062  1
  H  H40  1  0.53580356  0.24153484  0.56275831  1
  H  H41  1  0.94837876  0.22534144  0.60887853  1
  H  H42  1  0.94440688  0.21334932  0.74929558  1
  H  H43  1  0.64170115  0.28454750  0.80278692  1
  H  H44  1  0.66406837  0.14025055  0.80709491  1
  H  H45  1  0.82827409  0.30756046  0.85582330  1
  H  H46  1  0.73899547  0.23713980  0.90502565  1
  H  H47  1  0.84049201  0.17004797  0.86202682  1
  H  H48  1  0.86985264  0.75507206  0.16107034  1
  H  H49  1  0.78621557  0.70971564  0.09731690  1
  H  H50  1  0.77635376  0.83968553  0.12423725  1
  H  H51  1  0.62501947  0.74017783  0.16855293  1
  H  H52  1  0.71495400  0.63487867  0.19771939  1
  H  H53  1  0.70304199  0.95726944  0.25264405  1
  H  H54  1  0.73071043  0.95280173  0.39303668  1
  H  H55  1  0.74257207  0.53965669  0.42190992  1
  H  H56  1  0.75927380  0.53553486  0.56314740  1
  H  H57  1  0.77544463  0.94649064  0.60734402  1
  H  H58  1  0.78923042  0.94685066  0.74803473  1
  H  H59  1  0.71837202  0.64944466  0.80401477  1
  H  H60  1  0.86248999  0.66848586  0.81049098  1
  H  H61  1  0.69269630  0.83655670  0.85343511  1
  H  H62  1  0.76499288  0.75002842  0.90543856  1
  H  H63  1  0.83056018  0.84920795  0.86231596  1
  Pb  Pb64  1  0.01712775  0.99573886  0.00976994  1
  Pb  Pb65  1  0.00039563  0.49296206  0.99627254  1
  Pb  Pb66  1  0.50349457  0.97709969  0.99831152  1
  Pb  Pb67  1  0.50681805  0.49344498  0.99427012  1
  C  C68  1  0.20870101  0.27822284  0.80665503  1
  C  C69  1  0.21852221  0.22218959  0.73867927  1
  C  C70  1  0.21288018  0.11518173  0.71589382  1
  C  C71  1  0.22613783  0.11591759  0.64295271  1
  C  C72  1  0.23790925  0.22452859  0.62516554  1
  C  C73  1  0.24853891  0.27986350  0.56100026  1
  C  C74  1  0.25130809  0.38914520  0.54335381  1
  C  C75  1  0.25915386  0.39205046  0.47030499  1
  C  C76  1  0.26090592  0.28432169  0.44715642  1
  C  C77  1  0.26721042  0.23307538  0.38047706  1
  C  C78  1  0.26961419  0.12522707  0.35821513  1
  C  C79  1  0.27511910  0.12695755  0.28477590  1
  C  C80  1  0.27571233  0.23511341  0.26659860  1
  C  C81  1  0.28349106  0.29331251  0.20002018  1
  C  C82  1  0.27652268  0.79199284  0.80847962  1
  C  C83  1  0.22129211  0.78409155  0.74008827  1
  C  C84  1  0.11388285  0.78852226  0.71714785  1
  C  C85  1  0.11594781  0.77476759  0.64403712  1
  C  C86  1  0.22562712  0.76377231  0.62642252  1
  C  C87  1  0.28209026  0.75254167  0.56225713  1
  C  C88  1  0.39195576  0.74941528  0.54433960  1
  C  C89  1  0.39502701  0.74045595  0.47117531  1
  C  C90  1  0.28681571  0.73850654  0.44830623  1
  C  C91  1  0.23455146  0.73171356  0.38201302  1
  C  C92  1  0.12564855  0.72951402  0.36122027  1
  C  C93  1  0.12566076  0.72385590  0.28777068  1
  C  C94  1  0.23372618  0.72271658  0.26806348  1
  C  C95  1  0.28938221  0.71637731  0.20015301  1
  C  C96  1  0.72111948  0.29433627  0.19355909  1
  C  C97  1  0.77826060  0.27955772  0.26076713  1
  C  C98  1  0.88588614  0.28269612  0.28324193  1
  C  C99  1  0.88485224  0.26979475  0.35617120  1
  C  C100  1  0.77552890  0.26075279  0.37433750  1
  C  C101  1  0.72006932  0.25166176  0.43878482  1
  C  C102  1  0.61035710  0.25124459  0.45709767  1
  C  C103  1  0.60791197  0.24360762  0.53015478  1
  C  C104  1  0.71628196  0.23955105  0.55269155  1
  C  C105  1  0.76785348  0.23160876  0.61917464  1
  C  C106  1  0.87605111  0.22539192  0.64131466  1
  C  C107  1  0.87373773  0.21963621  0.71474154  1
  C  C108  1  0.76500062  0.22286998  0.73309340  1
  C  C109  1  0.70544418  0.21962600  0.79970656  1
  C  C110  1  0.70602309  0.72401156  0.19262923  1
  C  C111  1  0.71851219  0.77862997  0.26108044  1
  C  C112  1  0.71613116  0.88549507  0.28431782  1
  C  C113  1  0.72935790  0.88328405  0.35738186  1
  C  C114  1  0.73802580  0.77404501  0.37477107  1
  C  C115  1  0.74754881  0.71840814  0.43907693  1
  C  C116  1  0.74815741  0.60931424  0.45732063  1
  C  C117  1  0.75665160  0.60712101  0.53050964  1
  C  C118  1  0.76093482  0.71500077  0.55314148  1
  C  C119  1  0.76958870  0.76736293  0.61948975  1
  C  C120  1  0.77592115  0.87563049  0.64056417  1
  C  C121  1  0.78254393  0.87558680  0.71407092  1
  C  C122  1  0.77984887  0.76804927  0.73352486  1
  C  C123  1  0.78341169  0.71163899  0.80108124  1
  I  I124  1  0.26134339  0.06075654  0.98123481  1
  I  I125  1  0.25292302  0.41661088  0.00735886  1
  I  I126  1  0.76101005  0.96338717  0.02390665  1
  I  I127  1  0.74740293  0.59183677  0.99218758  1
  I  I128  1  0.94744805  0.24700746  0.01661564  1
  I  I129  1  0.03837084  0.74615947  0.97431470  1
  I  I130  1  0.57375844  0.23913627  0.98848939  1
  I  I131  1  0.40201281  0.73794914  0.00823405  1
  I  I132  1  0.97559143  0.01128825  0.84642486  1
  I  I133  1  0.04150959  0.97574569  0.17316396  1
  I  I134  1  0.97833313  0.46819605  0.83358744  1
  I  I135  1  0.99512229  0.52810809  0.16137131  1
  I  I136  1  0.53034007  0.96064528  0.83478684  1
  I  I137  1  0.49195765  0.01755350  0.16201980  1
  I  I138  1  0.46622551  0.48932796  0.82632732  1
  I  I139  1  0.50848681  0.49677064  0.15679305  1
  N  N140  1  0.30204687  0.25207918  0.85590471  1
  N  N141  1  0.27241517  0.21414526  0.14078453  1
  N  N142  1  0.24335349  0.70178944  0.85609153  1
  N  N143  1  0.20657796  0.73017099  0.14331058  1
  N  N144  1  0.75135921  0.20912251  0.13965773  1
  N  N145  1  0.78334965  0.23518852  0.85916833  1
  N  N146  1  0.79052193  0.76003634  0.14163118  1
  N  N147  1  0.76704021  0.79206177  0.85901613  1
  O  O148  1  0.27082898  0.30183493  0.32441715  1
  O  O149  1  0.25459930  0.21449970  0.50235413  1
  O  O150  1  0.23443227  0.29035512  0.68341670  1
  O  O151  1  0.30219280  0.72759432  0.32504578  1
  O  O152  1  0.21659947  0.74569881  0.50374053  1
  O  O153  1  0.29091175  0.76830195  0.68485188  1
  O  O154  1  0.69855647  0.23011352  0.67533802  1
  O  O155  1  0.78608036  0.24446510  0.49707945  1
  O  O156  1  0.70937605  0.26538102  0.31625319  1
  O  O157  1  0.77193850  0.70015004  0.67634157  1
  O  O158  1  0.75539988  0.78422695  0.49747456  1
  O  O159  1  0.73271589  0.70901643  0.31611538  1
