# generated using pymatgen
data_H18PbC18I4(NO2)2
_symmetry_space_group_name_H-M   'P 1'
_cell_length_a   12.46601938
_cell_length_b   12.44602064
_cell_length_c   22.13969035
_cell_angle_alpha   88.91482865
_cell_angle_beta   88.74738930
_cell_angle_gamma   89.50852968
_symmetry_Int_Tables_number   1
_chemical_formula_structural   H18PbC18I4(NO2)2
_chemical_formula_sum   'H72 Pb4 C72 I16 N8 O16'
_cell_volume   3433.47333377
_cell_formula_units_Z   4
loop_
 _symmetry_equiv_pos_site_id
 _symmetry_equiv_pos_as_xyz
  1  'x, y, z'
loop_
 _atom_site_type_symbol
 _atom_site_label
 _atom_site_symmetry_multiplicity
 _atom_site_fract_x
 _atom_site_fract_y
 _atom_site_fract_z
 _atom_site_occupancy
  H  H0  1  0.22679317  0.13374405  0.91632330  1
  H  H1  1  0.13706885  0.21790874  0.88601987  1
  H  H2  1  0.19783901  0.12621536  0.84348682  1
  H  H3  1  0.37325928  0.21228177  0.86411751  1
  H  H4  1  0.29662748  0.32137512  0.89508283  1
  H  H5  1  0.29134472  0.47853415  0.80237952  1
  H  H6  1  0.26071189  0.46300579  0.68035698  1
  H  H7  1  0.24337056  0.05736834  0.66769848  1
  H  H8  1  0.21508871  0.04381821  0.54574938  1
  H  H9  1  0.19674760  0.44229486  0.49709662  1
  H  H10  1  0.18778201  0.43382896  0.37342930  1
  H  H11  1  0.20176555  0.03047302  0.34942163  1
  H  H12  1  0.21276094  0.02692650  0.22643868  1
  H  H13  1  0.14839943  0.31197914  0.16699011  1
  H  H14  1  0.29020440  0.30792372  0.16905838  1
  H  H15  1  0.15378184  0.12651924  0.12857855  1
  H  H16  1  0.21719198  0.21547026  0.08337856  1
  H  H17  1  0.28979931  0.12942545  0.12626830  1
  H  H18  1  0.13327218  0.77880213  0.91634413  1
  H  H19  1  0.21678490  0.86645066  0.88194556  1
  H  H20  1  0.12350594  0.80497179  0.84256014  1
  H  H21  1  0.21063496  0.62979660  0.86798109  1
  H  H22  1  0.31981351  0.70502619  0.89595124  1
  H  H23  1  0.47646117  0.71203846  0.80365692  1
  H  H24  1  0.46161225  0.74033708  0.68064714  1
  H  H25  1  0.05686501  0.75672661  0.66747365  1
  H  H26  1  0.04458211  0.78628663  0.54466848  1
  H  H27  1  0.44273494  0.80197063  0.49595156  1
  H  H28  1  0.43383953  0.81195204  0.37229121  1
  H  H29  1  0.03037760  0.79820484  0.35033895  1
  H  H30  1  0.02561001  0.78418153  0.22768533  1
  H  H31  1  0.30917760  0.84823456  0.16600196  1
  H  H32  1  0.30578258  0.70553170  0.17074416  1
  H  H33  1  0.12160694  0.84386377  0.12982518  1
  H  H34  1  0.21101956  0.78537068  0.08406752  1
  H  H35  1  0.12977801  0.70788954  0.12743296  1
  H  H36  1  0.87114813  0.27744869  0.08466578  1
  H  H37  1  0.78462127  0.36862719  0.10967385  1
  H  H38  1  0.87424914  0.31278747  0.15679044  1
  H  H39  1  0.78970383  0.13352873  0.13430535  1
  H  H40  1  0.68114653  0.21171615  0.10447885  1
  H  H41  1  0.52377791  0.22073262  0.19660793  1
  H  H42  1  0.53901341  0.24198692  0.31942932  1
  H  H43  1  0.94387923  0.25673289  0.33250200  1
  H  H44  1  0.95628563  0.28636729  0.45440021  1
  H  H45  1  0.55832489  0.30331928  0.50341424  1
  H  H46  1  0.56696348  0.31215556  0.62707862  1
  H  H47  1  0.96997039  0.29749560  0.65009518  1
  H  H48  1  0.97355440  0.29146486  0.77327069  1
  H  H49  1  0.68764090  0.35842029  0.83058512  1
  H  H50  1  0.69352399  0.21589527  0.83289026  1
  H  H51  1  0.87428945  0.35865806  0.86817266  1
  H  H52  1  0.78325203  0.30587722  0.91617102  1
  H  H53  1  0.86716678  0.22326078  0.87787228  1
  H  H54  1  0.70997721  0.86407740  0.08448531  1
  H  H55  1  0.62480273  0.77725357  0.11796678  1
  H  H56  1  0.68252922  0.87171250  0.15840921  1
  H  H57  1  0.86127476  0.79042902  0.13055821  1
  H  H58  1  0.78779415  0.67892354  0.10373057  1
  H  H59  1  0.77911099  0.52215645  0.19626058  1
  H  H60  1  0.75885103  0.53847308  0.31940465  1
  H  H61  1  0.74361651  0.94422170  0.33308258  1
  H  H62  1  0.71321017  0.95605229  0.45581061  1
  H  H63  1  0.69770584  0.55682080  0.50346485  1
  H  H64  1  0.68805306  0.56478861  0.62704050  1
  H  H65  1  0.70171462  0.96847952  0.65038554  1
  H  H66  1  0.71121005  0.97278788  0.77334714  1
  H  H67  1  0.64812793  0.68609195  0.83351712  1
  H  H68  1  0.78944379  0.69616415  0.83196407  1
  H  H69  1  0.64185535  0.87790495  0.86706800  1
  H  H70  1  0.69213816  0.78956324  0.91614937  1
  H  H71  1  0.77588579  0.87115299  0.87601912  1
  Pb  Pb72  1  0.98292239  0.00824693  0.99549987  1
  Pb  Pb73  1  1.00165667  0.50985825  0.99883419  1
  Pb  Pb74  1  0.48594951  0.00883539  0.99787615  1
  Pb  Pb75  1  0.49530241  0.50375441  0.00775582  1
  C  C76  1  0.29765434  0.25822977  0.86114522  1
  C  C77  1  0.27966322  0.30423523  0.80032248  1
  C  C78  1  0.27893839  0.40645329  0.77686196  1
  C  C79  1  0.26414700  0.39800555  0.71354691  1
  C  C80  1  0.25543626  0.28999565  0.70193285  1
  C  C81  1  0.23977832  0.23115367  0.64810165  1
  C  C82  1  0.23583718  0.12318603  0.63523271  1
  C  C83  1  0.22148594  0.11611771  0.57198634  1
  C  C84  1  0.21732517  0.22018118  0.54939002  1
  C  C85  1  0.20672079  0.26662501  0.49039476  1
  C  C86  1  0.19868019  0.37146435  0.46930866  1
  C  C87  1  0.19410933  0.36714731  0.40541048  1
  C  C88  1  0.19964320  0.26000969  0.39070035  1
  C  C89  1  0.20217462  0.20553138  0.33445254  1
  C  C90  1  0.20407509  0.09918329  0.31862294  1
  C  C91  1  0.21008394  0.09778166  0.25417411  1
  C  C92  1  0.21139219  0.20273404  0.23454223  1
  C  C93  1  0.21785128  0.25811311  0.17435146  1
  C  C94  1  0.25649782  0.70468957  0.86237090  1
  C  C95  1  0.30248864  0.72045700  0.80097910  1
  C  C96  1  0.40466419  0.72270263  0.77757706  1
  C  C97  1  0.39660561  0.73621961  0.71390666  1
  C  C98  1  0.28866167  0.74330467  0.70209588  1
  C  C99  1  0.23033220  0.75899251  0.64793012  1
  C  C100  1  0.12267103  0.76394643  0.63485418  1
  C  C101  1  0.11632277  0.77907130  0.57131023  1
  C  C102  1  0.22054890  0.78254007  0.54893199  1
  C  C103  1  0.26732082  0.79310601  0.48986037  1
  C  C104  1  0.37185951  0.80072570  0.46843105  1
  C  C105  1  0.36726420  0.80576481  0.40447145  1
  C  C106  1  0.26025592  0.80066412  0.39016831  1
  C  C107  1  0.20512754  0.79744568  0.33438898  1
  C  C108  1  0.09867086  0.79516546  0.31923124  1
  C  C109  1  0.09659338  0.78767569  0.25500764  1
  C  C110  1  0.20126351  0.78610591  0.23493079  1
  C  C111  1  0.25602758  0.77883481  0.17481938  1
  C  C112  1  0.74437619  0.20944673  0.13825039  1
  C  C113  1  0.69821078  0.22477657  0.19933841  1
  C  C114  1  0.59593588  0.22730467  0.22261550  1
  C  C115  1  0.60405149  0.23801666  0.28624545  1
  C  C116  1  0.71191528  0.24348861  0.29816026  1
  C  C117  1  0.77022000  0.25793919  0.35214695  1
  C  C118  1  0.87787321  0.26323788  0.36498201  1
  C  C119  1  0.88438255  0.27817967  0.42821783  1
  C  C120  1  0.78029198  0.28116280  0.45078583  1
  C  C121  1  0.73366079  0.29195461  0.50977816  1
  C  C122  1  0.62907523  0.30074486  0.53106319  1
  C  C123  1  0.63350521  0.30524074  0.59497682  1
  C  C124  1  0.74055022  0.29889337  0.60943673  1
  C  C125  1  0.79523370  0.29646401  0.66548109  1
  C  C126  1  0.90146461  0.29526486  0.68110525  1
  C  C127  1  0.90289249  0.29112186  0.74556128  1
  C  C128  1  0.79806372  0.29001776  0.76536395  1
  C  C129  1  0.74226988  0.28851494  0.82544936  1
  C  C130  1  0.78787761  0.74269509  0.13721262  1
  C  C131  1  0.77644321  0.69685178  0.19880959  1
  C  C132  1  0.77364088  0.59472073  0.22229470  1
  C  C133  1  0.76312465  0.60332102  0.28609291  1
  C  C134  1  0.75812315  0.71156497  0.29795529  1
  C  C135  1  0.74326629  0.77024209  0.35222399  1
  C  C136  1  0.73731320  0.87805648  0.36551817  1
  C  C137  1  0.72143319  0.88422502  0.42908481  1
  C  C138  1  0.71855997  0.77976640  0.45124147  1
  C  C139  1  0.70754429  0.73251629  0.51014568  1
  C  C140  1  0.69953616  0.62768691  0.53117198  1
  C  C141  1  0.69441577  0.63177857  0.59517253  1
  C  C142  1  0.69964350  0.73880273  0.60989601  1
  C  C143  1  0.70209235  0.79356757  0.66590085  1
  C  C144  1  0.70411477  0.90007618  0.68138620  1
  C  C145  1  0.70974330  0.90187555  0.74566111  1
  C  C146  1  0.71061279  0.79697237  0.76545640  1
  C  C147  1  0.71489115  0.74298976  0.82584479  1
  I  I148  1  0.23746658  0.98003760  0.99698789  1
  I  I149  1  0.25008653  0.47747315  0.99169532  1
  I  I150  1  0.73978955  1.00496672  0.00053614  1
  I  I151  1  0.75369119  0.47071189  0.00560066  1
  I  I152  1  0.02210270  0.25327292  0.00095553  1
  I  I153  1  -0.00228626  0.75775584  0.00100963  1
  I  I154  1  0.51271607  0.25049414  0.00515822  1
  I  I155  1  0.53343817  0.75387998  0.99734566  1
  I  I156  1  0.97455407  0.01367628  0.84968142  1
  I  I157  1  0.99119025  0.00467629  0.14233574  1
  I  I158  1  0.99469690  0.51497359  0.85387916  1
  I  I159  1  0.02735462  0.51259929  0.14399735  1
  I  I160  1  0.48196794  0.00130151  0.85339264  1
  I  I161  1  0.46037201  1.00121242  0.14387489  1
  I  I162  1  0.52773932  0.49726929  0.86246974  1
  I  I163  1  0.49709928  0.51664095  0.14959353  1
  N  N164  1  0.20947327  0.17949585  0.87776680  1
  N  N165  1  0.22041916  0.17746889  0.12511443  1
  N  N166  1  0.17796540  0.79447998  0.87656991  1
  N  N167  1  0.17476689  0.77835602  0.12621146  1
  N  N168  1  0.82329835  0.29736754  0.12199668  1
  N  N169  1  0.82159411  0.29305230  0.87490597  1
  N  N170  1  0.69544641  0.81844272  0.12390439  1
  N  N171  1  0.70741635  0.82519543  0.87400312  1
  O  O172  1  0.20611822  0.27019032  0.28291983  1
  O  O173  1  0.20679754  0.19722551  0.44251303  1
  O  O174  1  0.22800897  0.29161536  0.59577245  1
  O  O175  1  0.26528065  0.23089709  0.75493135  1
  O  O176  1  0.26902542  0.79271158  0.28270436  1
  O  O177  1  0.19784731  0.79356533  0.44224466  1
  O  O178  1  0.29127179  0.77076293  0.59560065  1
  O  O179  1  0.22927791  0.73298595  0.75515877  1
  O  O180  1  0.73078308  0.29333664  0.71709268  1
  O  O181  1  0.80299628  0.29131377  0.55750815  1
  O  O182  1  0.70938949  0.26911145  0.40446072  1
  O  O183  1  0.77135954  0.23440858  0.24514404  1
  O  O184  1  0.70560421  0.72925042  0.71742283  1
  O  O185  1  0.70707240  0.80172859  0.55808226  1
  O  O186  1  0.73156859  0.70914102  0.40444213  1
  O  O187  1  0.76746094  0.77058168  0.24476923  1
