# generated using pymatgen
data_H12PbC7(I2N)2
_symmetry_space_group_name_H-M   'P 1'
_cell_length_a   12.73578406
_cell_length_b   12.61464553
_cell_length_c   11.10945765
_cell_angle_alpha   93.30486199
_cell_angle_beta   93.43627862
_cell_angle_gamma   90.21874509
_symmetry_Int_Tables_number   1
_chemical_formula_structural   H12PbC7(I2N)2
_chemical_formula_sum   'H48 Pb4 C28 I16 N8'
_cell_volume   1778.59732097
_cell_formula_units_Z   4
loop_
 _symmetry_equiv_pos_site_id
 _symmetry_equiv_pos_as_xyz
  1  'x, y, z'
loop_
 _atom_site_type_symbol
 _atom_site_label
 _atom_site_symmetry_multiplicity
 _atom_site_fract_x
 _atom_site_fract_y
 _atom_site_fract_z
 _atom_site_occupancy
  H  H0  1  0.30077732  0.21976235  0.83725611  1
  H  H1  1  0.24634893  0.10181309  0.79752730  1
  H  H2  1  0.17084126  0.19957634  0.85034895  1
  H  H3  1  0.18507604  0.29977929  0.67784086  1
  H  H4  1  0.14089324  0.16768998  0.63349911  1
  H  H5  1  0.37008927  0.24851162  0.63650287  1
  H  H6  1  0.32976480  0.11573554  0.59716664  1
  H  H7  1  0.29591515  0.39777989  0.50864067  1
  H  H8  1  0.25159692  0.44325408  0.29388751  1
  H  H9  1  0.21517128  0.29315793  0.13666057  1
  H  H10  1  0.22281437  0.11898444  0.19629187  1
  H  H11  1  0.26079028  0.06596151  0.38994372  1
  H  H12  1  0.21864152  0.69499305  0.83702980  1
  H  H13  1  0.10203998  0.74651277  0.79928232  1
  H  H14  1  0.19753014  0.82537370  0.86427699  1
  H  H15  1  0.30052928  0.80966399  0.69227634  1
  H  H16  1  0.17150048  0.85614463  0.65373394  1
  H  H17  1  0.24437335  0.62393099  0.62003034  1
  H  H18  1  0.11434967  0.66765582  0.58683380  1
  H  H19  1  0.39534722  0.70553673  0.50560994  1
  H  H20  1  0.44015946  0.75147873  0.29713570  1
  H  H21  1  0.29270789  0.78761857  0.14501640  1
  H  H22  1  0.11924669  0.77954272  0.20327057  1
  H  H23  1  0.06711104  0.74069768  0.39192880  1
  H  H24  1  0.77863878  0.20537923  0.15864757  1
  H  H25  1  0.89532291  0.26068677  0.19916886  1
  H  H26  1  0.79758504  0.33652411  0.14607911  1
  H  H27  1  0.69882685  0.31973844  0.31859571  1
  H  H28  1  0.82901726  0.36584135  0.36167205  1
  H  H29  1  0.75393834  0.13266320  0.36184150  1
  H  H30  1  0.88412116  0.17759286  0.40160660  1
  H  H31  1  0.60357497  0.21013683  0.48748969  1
  H  H32  1  0.55831638  0.25429418  0.70288291  1
  H  H33  1  0.70609030  0.29126334  0.85987940  1
  H  H34  1  0.87891253  0.28444222  0.80107754  1
  H  H35  1  0.93169010  0.24754138  0.60760978  1
  H  H36  1  0.79791319  0.78310133  0.16882498  1
  H  H37  1  0.74207538  0.90015695  0.20077494  1
  H  H38  1  0.66733008  0.79928466  0.13936601  1
  H  H39  1  0.68243761  0.70193691  0.31425197  1
  H  H40  1  0.64033811  0.83415356  0.35156169  1
  H  H41  1  0.86839963  0.75467429  0.38191457  1
  H  H42  1  0.82882344  0.88725967  0.41511324  1
  H  H43  1  0.79122607  0.60486203  0.49896317  1
  H  H44  1  0.73939889  0.55907930  0.70464457  1
  H  H45  1  0.69610435  0.70816775  0.85405692  1
  H  H46  1  0.70440763  0.88254475  0.79476959  1
  H  H47  1  0.75074941  0.93615032  0.60938162  1
  Pb  Pb48  1  0.98632103  0.00198607  0.99393751  1
  Pb  Pb49  1  0.99825710  0.50823946  0.00290452  1
  Pb  Pb50  1  0.49417620  0.01041743  0.00539798  1
  Pb  Pb51  1  0.49145953  0.50465717  0.00597375  1
  C  C52  1  0.20859628  0.21601354  0.67048146  1
  C  C53  1  0.30447223  0.19898799  0.59551344  1
  C  C54  1  0.28089473  0.22877080  0.46800580  1
  C  C55  1  0.27797204  0.33530151  0.43799690  1
  C  C56  1  0.25466181  0.36135301  0.31922491  1
  C  C57  1  0.23482034  0.28033065  0.23122149  1
  C  C58  1  0.26034360  0.15068737  0.37627884  1
  C  C59  1  0.21708707  0.78661689  0.68061273  1
  C  C60  1  0.19757130  0.69200806  0.59019460  1
  C  C61  1  0.22786091  0.71963204  0.46716180  1
  C  C62  1  0.33343317  0.72401463  0.43792841  1
  C  C63  1  0.35921164  0.74931565  0.32271791  1
  C  C64  1  0.27932595  0.76922322  0.23716865  1
  C  C65  1  0.15088653  0.74214826  0.37839252  1
  C  C66  1  0.78193937  0.29659726  0.32589035  1
  C  C67  1  0.80102642  0.20080604  0.40192469  1
  C  C68  1  0.77089772  0.22470006  0.52901740  1
  C  C69  1  0.66518699  0.22758477  0.55854431  1
  C  C70  1  0.63923095  0.25086377  0.67710801  1
  C  C71  1  0.71920806  0.27100334  0.76560809  1
  C  C72  1  0.84785803  0.24638255  0.62106956  1
  C  C73  1  0.70734370  0.78575875  0.32388966  1
  C  C74  1  0.80276089  0.80381634  0.41275287  1
  C  C75  1  0.77573838  0.77385798  0.53627587  1
  C  C76  1  0.77159961  0.66734226  0.56587722  1
  C  C77  1  0.74334726  0.64099841  0.67978280  1
  C  C78  1  0.71979276  0.72150145  0.76367922  1
  C  C79  1  0.75063652  0.85153247  0.62346798  1
  I  I80  1  0.24106003  0.98090522  0.01387759  1
  I  I81  1  0.24438022  0.55088315  0.99751122  1
  I  I82  1  0.74204153  0.04597637  0.98299399  1
  I  I83  1  0.74809671  0.48329376  0.01042472  1
  I  I84  1  0.02064343  0.25260664  0.97772278  1
  I  I85  1  0.96073059  0.75632807  0.03233229  1
  I  I86  1  0.46144818  0.25527113  0.96835888  1
  I  I87  1  0.51583029  0.75905186  0.00793447  1
  I  I88  1  0.99624304  0.98719963  0.70468749  1
  I  I89  1  0.00287717  0.01500754  0.28100042  1
  I  I90  1  0.99855397  0.49851771  0.71562661  1
  I  I91  1  0.99885303  0.50406625  0.29381625  1
  I  I92  1  0.47526221  0.97286325  0.71864672  1
  I  I93  1  0.53038757  0.03214644  0.29457219  1
  I  I94  1  0.46829347  0.50501657  0.71268487  1
  I  I95  1  0.52577379  0.50238872  0.29217469  1
  N  N96  1  0.23303989  0.18244360  0.79563319  1
  N  N97  1  0.23803491  0.17879261  0.26247607  1
  N  N98  1  0.18193523  0.76143307  0.80200850  1
  N  N99  1  0.17858313  0.76609167  0.26791663  1
  N  N100  1  0.81522099  0.27266952  0.20028036  1
  N  N101  1  0.81979384  0.26870644  0.73471859  1
  N  N102  1  0.73122925  0.81901595  0.20156767  1
  N  N103  1  0.72395236  0.82320784  0.73286740  1
