# generated using pymatgen
data_H8PbC5(I2N)2
_symmetry_space_group_name_H-M   'P 1'
_cell_length_a   11.88874870
_cell_length_b   12.05116696
_cell_length_c   10.38763925
_cell_angle_alpha   89.88976978
_cell_angle_beta   90.16073870
_cell_angle_gamma   91.42972087
_symmetry_Int_Tables_number   1
_chemical_formula_structural   H8PbC5(I2N)2
_chemical_formula_sum   'H32 Pb4 C20 I16 N8'
_cell_volume   1487.79956790
_cell_formula_units_Z   4
loop_
 _symmetry_equiv_pos_site_id
 _symmetry_equiv_pos_as_xyz
  1  'x, y, z'
loop_
 _atom_site_type_symbol
 _atom_site_label
 _atom_site_symmetry_multiplicity
 _atom_site_fract_x
 _atom_site_fract_y
 _atom_site_fract_z
 _atom_site_occupancy
  H  H0  1  0.17684380  0.31628991  0.74657485  1
  H  H1  1  0.17787437  0.17665517  0.74788689  1
  H  H2  1  0.29940056  0.25048619  0.77141119  1
  H  H3  1  0.23800867  0.42728194  0.56160997  1
  H  H4  1  0.23739519  0.41902598  0.31781474  1
  H  H5  1  0.22907224  0.24564399  0.21792821  1
  H  H6  1  0.24057607  0.07413731  0.31981731  1
  H  H7  1  0.23922762  0.06809993  0.56482056  1
  H  H8  1  0.32310735  0.83225947  0.74549574  1
  H  H9  1  0.18171822  0.82992351  0.75075992  1
  H  H10  1  0.25168273  0.71001602  0.77716089  1
  H  H11  1  0.42977070  0.76275854  0.56576702  1
  H  H12  1  0.41875242  0.74968341  0.32258759  1
  H  H13  1  0.24279163  0.74750466  0.22360929  1
  H  H14  1  0.06939207  0.75400146  0.32636016  1
  H  H15  1  0.06546691  0.76614195  0.57068761  1
  H  H16  1  0.68278402  0.32835516  0.24627898  1
  H  H17  1  0.82406982  0.33156272  0.25329474  1
  H  H18  1  0.75340377  0.20878405  0.22203072  1
  H  H19  1  0.56612517  0.26618760  0.42615897  1
  H  H20  1  0.56946510  0.25614830  0.67066589  1
  H  H21  1  0.74261727  0.25096328  0.77527433  1
  H  H22  1  0.91878497  0.25110520  0.67800275  1
  H  H23  1  0.93035600  0.26171212  0.43471345  1
  H  H24  1  0.67473133  0.67705755  0.25457149  1
  H  H25  1  0.67432289  0.81704926  0.25605732  1
  H  H26  1  0.79628697  0.75056238  0.22910205  1
  H  H27  1  0.73983386  0.56802182  0.43704968  1
  H  H28  1  0.74216685  0.57396626  0.68206867  1
  H  H29  1  0.73060309  0.74548288  0.78323232  1
  H  H30  1  0.73966320  0.91887058  0.68282424  1
  H  H31  1  0.73941397  0.92720921  0.43895320  1
  Pb  Pb32  1  0.98820483  0.00830150  0.02901927  1
  Pb  Pb33  1  0.00085207  0.50037995  0.99552316  1
  Pb  Pb34  1  0.50098857  0.99879585  0.00307487  1
  Pb  Pb35  1  0.48752079  0.50905122  0.97102219  1
  C  C36  1  0.23569554  0.24755528  0.57780805  1
  C  C37  1  0.23892811  0.34830366  0.51123851  1
  C  C38  1  0.23926156  0.34524786  0.37796635  1
  C  C39  1  0.24048833  0.14822022  0.37965026  1
  C  C40  1  0.23984203  0.14661274  0.51310573  1
  C  C41  1  0.24782272  0.76616700  0.58321996  1
  C  C42  1  0.34911253  0.75994382  0.51637585  1
  C  C43  1  0.34463539  0.75271909  0.38327863  1
  C  C44  1  0.14494584  0.75503283  0.38580843  1
  C  C45  1  0.14463006  0.76196111  0.51910756  1
  C  C46  1  0.74847014  0.26571240  0.41537954  1
  C  C47  1  0.64515310  0.26216724  0.47855966  1
  C  C48  1  0.64515014  0.25639725  0.61199723  1
  C  C49  1  0.84481430  0.25365012  0.61652097  1
  C  C50  1  0.84959391  0.25964177  0.48332521  1
  C  C51  1  0.73583667  0.74748930  0.42346545  1
  C  C52  1  0.74064337  0.64651063  0.48849228  1
  C  C53  1  0.74200307  0.64807306  0.62196080  1
  C  C54  1  0.74111253  0.84510821  0.62291968  1
  C  C55  1  0.74011738  0.84822031  0.48966828  1
  I  I56  1  0.24648943  0.95448273  0.07404877  1
  I  I57  1  0.24940333  0.61781636  0.01539960  1
  I  I58  1  0.74906255  0.11430676  0.98307810  1
  I  I59  1  0.74612178  0.45029331  0.92985643  1
  I  I60  1  0.09292964  0.25857140  0.01965713  1
  I  I61  1  0.93310409  0.75303275  0.06011007  1
  I  I62  1  0.43449514  0.25278204  0.94284014  1
  I  I63  1  0.59409904  0.75732480  0.97798045  1
  I  I64  1  0.03829229  0.99158254  0.72029651  1
  I  I65  1  0.95765159  0.02266720  0.32732848  1
  I  I66  1  0.03921690  0.50180377  0.69310004  1
  I  I67  1  0.96371783  0.48492263  0.30190194  1
  I  I68  1  0.46274253  0.98663819  0.69692801  1
  I  I69  1  0.53970713  0.99805398  0.30595841  1
  I  I70  1  0.45744817  0.52208140  0.67255069  1
  I  I71  1  0.53861394  0.49338812  0.27993391  1
  N  N72  1  0.22251329  0.24785141  0.71723722  1
  N  N73  1  0.23894254  0.24636777  0.31710356  1
  N  N74  1  0.25080245  0.78320854  0.72237477  1
  N  N75  1  0.24397277  0.75135056  0.32326417  1
  N  N76  1  0.75183709  0.28218034  0.27602569  1
  N  N77  1  0.74402008  0.25313745  0.67559071  1
  N  N78  1  0.72031858  0.74810693  0.28427734  1
  N  N79  1  0.74060724  0.74619752  0.68409920  1
