# generated using pymatgen
data_H6PbC3S(I2N)2
_symmetry_space_group_name_H-M   'P 1'
_cell_length_a   12.33036143
_cell_length_b   12.15535254
_cell_length_c   9.95951391
_cell_angle_alpha   91.04304232
_cell_angle_beta   90.10965409
_cell_angle_gamma   91.28036748
_symmetry_Int_Tables_number   1
_chemical_formula_structural   H6PbC3S(I2N)2
_chemical_formula_sum   'H24 Pb4 C12 S4 I16 N8'
_cell_volume   1492.10685183
_cell_formula_units_Z   4
loop_
 _symmetry_equiv_pos_site_id
 _symmetry_equiv_pos_as_xyz
  1  'x, y, z'
loop_
 _atom_site_type_symbol
 _atom_site_label
 _atom_site_symmetry_multiplicity
 _atom_site_fract_x
 _atom_site_fract_y
 _atom_site_fract_z
 _atom_site_occupancy
  H  H0  1  0.32710748  0.32432776  0.72999322  1
  H  H1  1  0.19047861  0.31972994  0.72929760  1
  H  H2  1  0.26115293  0.20411417  0.77466352  1
  H  H3  1  0.27147171  0.40480808  0.47529412  1
  H  H4  1  0.25103694  0.30888177  0.25564788  1
  H  H5  1  0.23062859  0.10305940  0.25867235  1
  H  H6  1  0.32091064  0.67292315  0.73755886  1
  H  H7  1  0.33715299  0.81311105  0.73352083  1
  H  H8  1  0.21225127  0.75390226  0.77811776  1
  H  H9  1  0.41292427  0.76330898  0.47867820  1
  H  H10  1  0.31718276  0.74678302  0.25988941  1
  H  H11  1  0.11440175  0.72310125  0.26869285  1
  H  H12  1  0.66402407  0.18511893  0.26355258  1
  H  H13  1  0.67905105  0.32495882  0.26056752  1
  H  H14  1  0.78856168  0.24484599  0.21964887  1
  H  H15  1  0.58772660  0.23504213  0.51830859  1
  H  H16  1  0.68410444  0.25134616  0.73858721  1
  H  H17  1  0.88589249  0.27600232  0.72919376  1
  H  H18  1  0.80703218  0.67779176  0.26771346  1
  H  H19  1  0.67016086  0.67965230  0.26313867  1
  H  H20  1  0.74142116  0.79655258  0.22232847  1
  H  H21  1  0.72795808  0.59448148  0.52047941  1
  H  H22  1  0.74480405  0.69118796  0.74192751  1
  H  H23  1  0.76469257  0.89635673  0.73823222  1
  Pb  Pb24  1  0.99912216  0.99695324  0.99977243  1
  Pb  Pb25  1  0.00290838  0.49704695  0.00447576  1
  Pb  Pb26  1  0.49743200  1.00018118  1.00044537  1
  Pb  Pb27  1  0.50208126  0.49793704  1.00094138  1
  C  C28  1  0.25921294  0.24119244  0.56786438  1
  C  C29  1  0.26265169  0.31585927  0.46686285  1
  C  C30  1  0.23980430  0.15499753  0.34838235  1
  C  C31  1  0.25239354  0.74453802  0.57445008  1
  C  C32  1  0.32546886  0.75247034  0.47215808  1
  C  C33  1  0.16675274  0.73085642  0.35629012  1
  C  C34  1  0.74839660  0.25359078  0.42321206  1
  C  C35  1  0.67513170  0.24608542  0.52539157  1
  C  C36  1  0.83366613  0.26828254  0.64149419  1
  C  C37  1  0.73916842  0.75823579  0.42846695  1
  C  C38  1  0.73590025  0.68347786  0.52943700  1
  C  C39  1  0.75648874  0.84440529  0.64837443  1
  S  S40  1  0.23777718  0.10842112  0.50675515  1
  S  S41  1  0.12106052  0.72404225  0.51593178  1
  S  S42  1  0.87957386  0.27471021  0.48196388  1
  S  S43  1  0.75873356  0.89114216  0.49004256  1
  I  I44  1  0.25219957  0.07828416  0.96771505  1
  I  I45  1  0.24634223  0.47080596  0.10792933  1
  I  I46  1  0.74802353  0.93281624  0.03772536  1
  I  I47  1  0.74677073  0.55743094  0.92119593  1
  I  I48  1  0.95887887  0.24890311  0.10052195  1
  I  I49  1  0.04536738  0.74783778  0.90271013  1
  I  I50  1  0.57282086  0.24845970  0.93598616  1
  I  I51  1  0.45388461  0.74991083  0.08512977  1
  I  I52  1  0.98858807  0.04469612  0.69176443  1
  I  I53  1  0.01098452  0.95335532  0.30934700  1
  I  I54  1  0.06289745  0.45214350  0.69457672  1
  I  I55  1  0.93597020  0.54698290  0.30924088  1
  I  I56  1  0.48430101  0.94320235  0.68868685  1
  I  I57  1  0.51151808  0.05925181  0.31109157  1
  I  I58  1  0.43140344  0.51120312  0.69207592  1
  I  I59  1  0.56672606  0.48225266  0.30998330  1
  N  N60  1  0.26087192  0.27090363  0.70850679  1
  N  N61  1  0.25174839  0.26402150  0.34414652  1
  N  N62  1  0.28077750  0.74669444  0.71461936  1
  N  N63  1  0.27385034  0.74449588  0.35012580  1
  N  N64  1  0.72009939  0.25141169  0.28308918  1
  N  N65  1  0.72653938  0.25459078  0.64755320  1
  N  N66  1  0.73826814  0.72906916  0.28748444  1
  N  N67  1  0.74552351  0.73525335  0.65237712  1
