# generated using pymatgen
data_H12PbC7(I2N)2
_symmetry_space_group_name_H-M   'P 1'
_cell_length_a   12.74856635
_cell_length_b   12.64306238
_cell_length_c   11.18754008
_cell_angle_alpha   89.99442350
_cell_angle_beta   89.99384362
_cell_angle_gamma   89.23673282
_symmetry_Int_Tables_number   1
_chemical_formula_structural   H12PbC7(I2N)2
_chemical_formula_sum   'H48 Pb4 C28 I16 N8'
_cell_volume   1803.05798061
_cell_formula_units_Z   4
loop_
 _symmetry_equiv_pos_site_id
 _symmetry_equiv_pos_as_xyz
  1  'x, y, z'
loop_
 _atom_site_type_symbol
 _atom_site_label
 _atom_site_symmetry_multiplicity
 _atom_site_fract_x
 _atom_site_fract_y
 _atom_site_fract_z
 _atom_site_occupancy
  H  H0  1  0.26411376  0.18159327  0.83178035  1
  H  H1  1  0.14999204  0.24515598  0.85140063  1
  H  H2  1  0.25837383  0.31519482  0.83664309  1
  H  H3  1  0.15655378  0.32190583  0.65487259  1
  H  H4  1  0.15762362  0.18042521  0.65140190  1
  H  H5  1  0.35371931  0.32157437  0.63109092  1
  H  H6  1  0.35518545  0.17993795  0.63054085  1
  H  H7  1  0.28458963  0.42233648  0.45651775  1
  H  H8  1  0.22754724  0.41589060  0.24050938  1
  H  H9  1  0.19754053  0.25204706  0.15384465  1
  H  H10  1  0.22695716  0.08714984  0.24178576  1
  H  H11  1  0.28409541  0.07980455  0.45719839  1
  H  H12  1  0.18521417  0.74048209  0.83556400  1
  H  H13  1  0.25475927  0.84990705  0.85097325  1
  H  H14  1  0.31722468  0.73408001  0.83114073  1
  H  H15  1  0.31946961  0.84302697  0.65153590  1
  H  H16  1  0.17951033  0.84421828  0.65433116  1
  H  H17  1  0.31982175  0.64334358  0.62978841  1
  H  H18  1  0.17976619  0.64503095  0.63027727  1
  H  H19  1  0.41905204  0.71590804  0.45568577  1
  H  H20  1  0.41109191  0.77187168  0.23954886  1
  H  H21  1  0.24672525  0.80004917  0.15198786  1
  H  H22  1  0.08506878  0.77152959  0.24037035  1
  H  H23  1  0.07957444  0.71544861  0.45684280  1
  H  H24  1  0.81741679  0.23442097  0.16893627  1
  H  H25  1  0.75439368  0.34991983  0.14900546  1
  H  H26  1  0.68538187  0.24013415  0.16435439  1
  H  H27  1  0.67894913  0.34387150  0.34555698  1
  H  H28  1  0.81890497  0.34336423  0.34851953  1
  H  H29  1  0.68008076  0.14473460  0.36977268  1
  H  H30  1  0.82013133  0.14361208  0.37021152  1
  H  H31  1  0.57961124  0.21539431  0.54307086  1
  H  H32  1  0.58495557  0.27149899  0.75953046  1
  H  H33  1  0.74654127  0.30005282  0.84801268  1
  H  H34  1  0.91097614  0.27191322  0.76054725  1
  H  H35  1  0.91908339  0.21595524  0.54442719  1
  H  H36  1  0.75806575  0.81532449  0.16343067  1
  H  H37  1  0.65003475  0.74475970  0.14861518  1
  H  H38  1  0.76446602  0.68174272  0.16815715  1
  H  H39  1  0.65794688  0.67986249  0.34854818  1
  H  H40  1  0.65623525  0.82134916  0.34523441  1
  H  H41  1  0.85544413  0.68022256  0.36946716  1
  H  H42  1  0.85344702  0.82185906  0.36886539  1
  H  H43  1  0.78413066  0.57982419  0.54269366  1
  H  H44  1  0.72697316  0.58701897  0.75811151  1
  H  H45  1  0.69752523  0.75184910  0.84616975  1
  H  H46  1  0.72751831  0.91575512  0.75961312  1
  H  H47  1  0.78455163  0.92235686  0.54359139  1
  Pb  Pb48  1  0.98934160  0.00252668  0.99758179  1
  Pb  Pb49  1  0.99623911  0.50926493  0.99830541  1
  Pb  Pb50  1  0.49629065  0.00923794  0.00170334  1
  Pb  Pb51  1  0.48929399  0.50250264  0.00236063  1
  C  C52  1  0.20411266  0.25048746  0.67331077  1
  C  C53  1  0.30870205  0.25099567  0.60633654  1
  C  C54  1  0.28564977  0.25115697  0.47489305  1
  C  C55  1  0.27185622  0.34668903  0.41268735  1
  C  C56  1  0.24118487  0.34545212  0.29436615  1
  C  C57  1  0.24081552  0.15757336  0.29490808  1
  C  C58  1  0.27151574  0.15578216  0.41331493  1
  C  C59  1  0.25004738  0.79591401  0.67291703  1
  C  C60  1  0.24964366  0.69062302  0.60560420  1
  C  C61  1  0.24932323  0.71418289  0.47422899  1
  C  C62  1  0.34359764  0.72840306  0.41196766  1
  C  C63  1  0.34145717  0.75843342  0.29322861  1
  C  C64  1  0.15508403  0.75826845  0.29398251  1
  C  C65  1  0.15437964  0.72806927  0.41253494  1
  C  C66  1  0.74973618  0.29590341  0.32706955  1
  C  C67  1  0.74978124  0.19061494  0.39441855  1
  C  C68  1  0.74936710  0.21417296  0.52576325  1
  C  C69  1  0.65438268  0.22804168  0.58741390  1
  C  C70  1  0.65500745  0.25825196  0.70595990  1
  C  C71  1  0.84138313  0.25845681  0.70683863  1
  C  C72  1  0.84361861  0.22842218  0.58808764  1
  C  C73  1  0.70411751  0.75016048  0.32670530  1
  C  C74  1  0.80869504  0.75111432  0.39365837  1
  C  C75  1  0.78564720  0.75118923  0.52510491  1
  C  C76  1  0.77152598  0.65577682  0.58662870  1
  C  C77  1  0.74082174  0.65747787  0.70503493  1
  C  C78  1  0.74117100  0.84535577  0.70571030  1
  C  C79  1  0.77184316  0.84668719  0.58737198  1
  I  I80  1  0.24701659  0.99807320  0.00283213  1
  I  I81  1  0.24630126  0.48418877  0.98358647  1
  I  I82  1  0.74634618  0.98414404  0.01650623  1
  I  I83  1  0.74695820  0.49801920  0.99708463  1
  I  I84  1  0.00794257  0.25342679  0.01558547  1
  I  I85  1  0.02202485  0.75397573  0.98676898  1
  I  I86  1  0.52203204  0.25394163  0.01315204  1
  I  I87  1  0.50798297  0.75338057  0.98442375  1
  I  I88  1  0.01261725  0.00707134  0.71395369  1
  I  I89  1  0.99068510  0.00288715  0.28594456  1
  I  I90  1  0.00568845  0.49744874  0.71287818  1
  I  I91  1  0.98299594  0.50332749  0.28522030  1
  I  I92  1  0.48314965  0.00331693  0.71480949  1
  I  I93  1  0.50577168  0.99739496  0.28717562  1
  I  I94  1  0.49047727  0.50294230  0.71394540  1
  I  I95  1  0.51234209  0.50704082  0.28602879  1
  N  N96  1  0.22134009  0.24769879  0.80561947  1
  N  N97  1  0.22590122  0.25158835  0.23975369  1
  N  N98  1  0.25219104  0.77791266  0.80497712  1
  N  N99  1  0.24790591  0.77326697  0.23849419  1
  N  N100  1  0.75212275  0.27792045  0.19501532  1
  N  N101  1  0.74779486  0.27327125  0.76152110  1
  N  N102  1  0.72135644  0.74760628  0.19439101  1
  N  N103  1  0.72589664  0.75144942  0.76025908  1
