# generated using pymatgen
data_H21PbC10I4N3
_symmetry_space_group_name_H-M   'P 1'
_cell_length_a   12.16675801
_cell_length_b   12.22828106
_cell_length_c   16.53639055
_cell_angle_alpha   89.95938447
_cell_angle_beta   89.97075348
_cell_angle_gamma   88.57258179
_symmetry_Int_Tables_number   1
_chemical_formula_structural   H21PbC10I4N3
_chemical_formula_sum   'H84 Pb4 C40 I16 N12'
_cell_volume   2459.49560833
_cell_formula_units_Z   4
loop_
 _symmetry_equiv_pos_site_id
 _symmetry_equiv_pos_as_xyz
  1  'x, y, z'
loop_
 _atom_site_type_symbol
 _atom_site_label
 _atom_site_symmetry_multiplicity
 _atom_site_fract_x
 _atom_site_fract_y
 _atom_site_fract_z
 _atom_site_occupancy
  H  H0  1  0.25781187  0.17312209  0.84220151  1
  H  H1  1  0.35910370  0.25489599  0.81427984  1
  H  H2  1  0.28001480  0.28780603  0.89341904  1
  H  H3  1  0.22392647  0.40442471  0.79023887  1
  H  H4  1  0.11912379  0.31066179  0.81168072  1
  H  H5  1  0.18221310  0.19470176  0.69242920  1
  H  H6  1  0.13400477  0.32678692  0.66553466  1
  H  H7  1  0.32440177  0.39263225  0.65117743  1
  H  H8  1  0.38021119  0.26814241  0.68691507  1
  H  H9  1  0.32384055  0.07913491  0.58277053  1
  H  H10  1  0.32323501  0.07918501  0.41739043  1
  H  H11  1  0.32244052  0.39297722  0.34890872  1
  H  H12  1  0.37989719  0.26927132  0.31317563  1
  H  H13  1  0.18290745  0.19334954  0.30743749  1
  H  H14  1  0.13299256  0.32475655  0.33439749  1
  H  H15  1  0.22185991  0.40405021  0.20983592  1
  H  H16  1  0.11873578  0.30864811  0.18818103  1
  H  H17  1  0.27995472  0.28856008  0.10655484  1
  H  H18  1  0.35954693  0.25748150  0.18570143  1
  H  H19  1  0.26008233  0.17335038  0.15785830  1
  H  H20  1  0.30355762  0.40499316  0.49999824  1
  H  H21  1  0.16376639  0.74067122  0.83303187  1
  H  H22  1  0.25963034  0.64113531  0.81775085  1
  H  H23  1  0.27207157  0.72664549  0.89489259  1
  H  H24  1  0.40038975  0.76934186  0.79280482  1
  H  H25  1  0.30583720  0.87875374  0.81241224  1
  H  H26  1  0.19264198  0.82286634  0.69180293  1
  H  H27  1  0.32608926  0.86397603  0.66672129  1
  H  H28  1  0.39155689  0.67160784  0.65104793  1
  H  H29  1  0.26705597  0.62200705  0.68714786  1
  H  H30  1  0.07581853  0.68623904  0.58241693  1
  H  H31  1  0.07587173  0.68680854  0.41772353  1
  H  H32  1  0.39189991  0.67349108  0.34912364  1
  H  H33  1  0.26816460  0.62226995  0.31307813  1
  H  H34  1  0.19129401  0.82228428  0.30797070  1
  H  H35  1  0.32415033  0.86502836  0.33298281  1
  H  H36  1  0.39983588  0.77122957  0.20711947  1
  H  H37  1  0.30378747  0.87923277  0.18721991  1
  H  H38  1  0.27217396  0.72661176  0.10508988  1
  H  H39  1  0.26153926  0.64081547  0.18229281  1
  H  H40  1  0.16376719  0.73871426  0.16708322  1
  H  H41  1  0.40342872  0.69231368  0.50003415  1
  H  H42  1  0.82521825  0.22625384  0.15843703  1
  H  H43  1  0.73195149  0.13267864  0.18326872  1
  H  H44  1  0.71081892  0.21397442  0.10401648  1
  H  H45  1  0.59301135  0.27247408  0.20761550  1
  H  H46  1  0.68934633  0.37360847  0.18341571  1
  H  H47  1  0.80497179  0.31509031  0.30378137  1
  H  H48  1  0.67240245  0.36462062  0.32980043  1
  H  H49  1  0.60631566  0.17562870  0.34926277  1
  H  H50  1  0.73167765  0.11905566  0.31493863  1
  H  H51  1  0.92147643  0.18730423  0.41747981  1
  H  H52  1  0.92142248  0.18787806  0.58246061  1
  H  H53  1  0.60596200  0.17752577  0.65074585  1
  H  H54  1  0.73059841  0.11940849  0.68507635  1
  H  H55  1  0.80628176  0.31445298  0.69628793  1
  H  H56  1  0.67434331  0.36561605  0.67024189  1
  H  H57  1  0.59354419  0.27447563  0.79241405  1
  H  H58  1  0.69138395  0.37405026  0.81667943  1
  H  H59  1  0.71063833  0.21416219  0.89605175  1
  H  H60  1  0.72979322  0.13258952  0.81684044  1
  H  H61  1  0.82513111  0.22434159  0.84131275  1
  H  H62  1  0.59352517  0.18780417  0.50004762  1
  H  H63  1  0.76899553  0.83246696  0.16400651  1
  H  H64  1  0.86643722  0.73445558  0.18088567  1
  H  H65  1  0.78097693  0.72344470  0.10333451  1
  H  H66  1  0.73519703  0.59879965  0.20667755  1
  H  H67  1  0.62640431  0.69298416  0.18386231  1
  H  H68  1  0.67919176  0.80765525  0.30454386  1
  H  H69  1  0.63651589  0.67533420  0.32978616  1
  H  H70  1  0.82971386  0.61016977  0.34930459  1
  H  H71  1  0.88038973  0.73432268  0.31441563  1
  H  H72  1  0.81026014  0.92442275  0.41782366  1
  H  H73  1  0.80970065  0.92436037  0.58199180  1
  H  H74  1  0.82779879  0.60980661  0.65060364  1
  H  H75  1  0.88016201  0.73318723  0.68535945  1
  H  H76  1  0.67984916  0.80900798  0.69567761  1
  H  H77  1  0.63545603  0.67731866  0.67056627  1
  H  H78  1  0.73343369  0.59934545  0.79344668  1
  H  H79  1  0.62605060  0.69493600  0.81652203  1
  H  H80  1  0.78105464  0.72339451  0.89668360  1
  H  H81  1  0.86679637  0.73248794  0.81907935  1
  H  H82  1  0.77104726  0.83239537  0.83578719  1
  H  H83  1  0.81472843  0.59805687  0.50000271  1
  Pb  Pb84  1  0.01094900  1.00534507  0.00010614  1
  Pb  Pb85  1  0.98936751  0.50389855  0.99995035  1
  Pb  Pb86  1  0.50659722  0.99954380  -0.00004400  1
  Pb  Pb87  1  0.48851663  0.50419299  0.99988969  1
  C  C88  1  0.20032788  0.31885344  0.78390361  1
  C  C89  1  0.20159174  0.28204369  0.69626445  1
  C  C90  1  0.31056650  0.30399069  0.65230579  1
  C  C91  1  0.31482475  0.25787381  0.56871245  1
  C  C92  1  0.32096438  0.14996331  0.54308194  1
  C  C93  1  0.32061782  0.14999197  0.45702846  1
  C  C94  1  0.31428210  0.25792403  0.43134862  1
  C  C95  1  0.30972073  0.30414744  0.34774508  1
  C  C96  1  0.20120570  0.28096026  0.30368284  1
  C  C97  1  0.19966755  0.31804878  0.21606585  1
  C  C98  1  0.31467300  0.79752519  0.78484812  1
  C  C99  1  0.28023858  0.79880098  0.69656662  1
  C  C100  1  0.30237199  0.68961579  0.65232854  1
  C  C101  1  0.25567405  0.68754163  0.56882682  1
  C  C102  1  0.14732068  0.68634370  0.54306830  1
  C  C103  1  0.14735014  0.68664788  0.45704656  1
  C  C104  1  0.25573262  0.68801633  0.43127161  1
  C  C105  1  0.30253098  0.69040856  0.34776773  1
  C  C106  1  0.27915159  0.79922976  0.30327285  1
  C  C107  1  0.31372725  0.79818077  0.21499376  1
  C  C108  1  0.67970192  0.29410404  0.21297198  1
  C  C109  1  0.71710481  0.29589373  0.30059945  1
  C  C110  1  0.69532909  0.18978584  0.34765051  1
  C  C111  1  0.74158290  0.19050834  0.43136213  1
  C  C112  1  0.85008392  0.18995695  0.45698431  1
  C  C113  1  0.85005048  0.19027983  0.54298597  1
  C  C114  1  0.74152217  0.19101581  0.56864841  1
  C  C115  1  0.69515939  0.19062524  0.65237085  1
  C  C116  1  0.71815535  0.29631299  0.69945093  1
  C  C117  1  0.68059152  0.29480792  0.78708102  1
  C  C118  1  0.70713448  0.68443049  0.21295105  1
  C  C119  1  0.70330104  0.72036446  0.30088250  1
  C  C120  1  0.81121871  0.69879887  0.34765961  1
  C  C121  1  0.80938775  0.74525297  0.43122122  1
  C  C122  1  0.80851052  0.85310652  0.45692968  1
  C  C123  1  0.80819631  0.85307011  0.54292409  1
  C  C124  1  0.80888660  0.74518840  0.56868659  1
  C  C125  1  0.81042370  0.69863157  0.65226849  1
  C  C126  1  0.70291090  0.72145326  0.69929844  1
  C  C127  1  0.70658740  0.68535005  0.78722826  1
  I  I128  1  0.25724239  0.07476073  0.00044848  1
  I  I129  1  0.24041226  0.43279261  0.99985846  1
  I  I130  1  0.75820620  0.95067844  0.99932197  1
  I  I131  1  0.73662363  0.57541945  0.00007421  1
  I  I132  1  0.92697764  0.25657911  0.99969968  1
  I  I133  1  0.05411828  0.75232141  0.00029224  1
  I  I134  1  0.55869724  0.25391375  0.00016418  1
  I  I135  1  0.42164903  0.75528959  0.99988653  1
  I  I136  1  0.99805028  0.99739212  0.80389024  1
  I  I137  1  0.99578781  0.99718518  0.19633553  1
  I  I138  1  0.99268461  0.53851974  0.80467579  1
  I  I139  1  0.99191418  0.53718230  0.19499729  1
  I  I140  1  0.51684078  0.02447273  0.80428288  1
  I  I141  1  0.51827044  0.02263298  0.19536860  1
  I  I142  1  0.45553541  0.50324134  0.80635840  1
  I  I143  1  0.45466186  0.50304619  0.19376715  1
  N  N144  1  0.27954397  0.25366321  0.83557138  1
  N  N145  1  0.28011584  0.25436098  0.16444000  1
  N  N146  1  0.31055138  0.32212263  0.50001543  1
  N  N147  1  0.24688801  0.72182005  0.83480817  1
  N  N148  1  0.24717270  0.72133534  0.16521501  1
  N  N149  1  0.32030709  0.68855518  0.50004279  1
  N  N150  1  0.74228827  0.21152729  0.16264764  1
  N  N151  1  0.74187861  0.21117664  0.83734524  1
  N  N152  1  0.67682410  0.19195617  0.50001463  1
  N  N153  1  0.78573517  0.74939505  0.16320401  1
  N  N154  1  0.78629637  0.74908193  0.83674782  1
  N  N155  1  0.80865105  0.68088886  0.49996885  1
