# generated using pymatgen
data_H18PbC10(I2N)2
_symmetry_space_group_name_H-M   'P 1'
_cell_length_a   12.67207082
_cell_length_b   12.67179161
_cell_length_c   14.49301556
_cell_angle_alpha   90.00035762
_cell_angle_beta   89.99746200
_cell_angle_gamma   89.60806055
_symmetry_Int_Tables_number   1
_chemical_formula_structural   H18PbC10(I2N)2
_chemical_formula_sum   'H72 Pb4 C40 I16 N8'
_cell_volume   2327.20268988
_cell_formula_units_Z   4
loop_
 _symmetry_equiv_pos_site_id
 _symmetry_equiv_pos_as_xyz
  1  'x, y, z'
loop_
 _atom_site_type_symbol
 _atom_site_label
 _atom_site_symmetry_multiplicity
 _atom_site_fract_x
 _atom_site_fract_y
 _atom_site_fract_z
 _atom_site_occupancy
  H  H0  1  0.24278315  0.31624167  0.87107402  1
  H  H1  1  0.24529835  0.18370431  0.86920054  1
  H  H2  1  0.13110624  0.24856394  0.87046335  1
  H  H3  1  0.16021129  0.32184333  0.71979306  1
  H  H4  1  0.16114993  0.18087779  0.71865859  1
  H  H5  1  0.35953300  0.32122883  0.72679204  1
  H  H6  1  0.36013659  0.18095691  0.72654565  1
  H  H7  1  0.31358171  0.42147669  0.58534022  1
  H  H8  1  0.31358089  0.42147887  0.41466096  1
  H  H9  1  0.36013812  0.18096078  0.27344340  1
  H  H10  1  0.35953530  0.32123247  0.27320182  1
  H  H11  1  0.16115085  0.18088033  0.28133903  1
  H  H12  1  0.16021449  0.32184545  0.28021058  1
  H  H13  1  0.13111828  0.24857476  0.12953820  1
  H  H14  1  0.24279746  0.31624837  0.12892606  1
  H  H15  1  0.24530800  0.18371088  0.13079381  1
  H  H16  1  0.31553201  0.08147569  0.41435934  1
  H  H17  1  0.31553209  0.08147311  0.58562776  1
  H  H18  1  0.31629862  0.75469120  0.86919826  1
  H  H19  1  0.18376655  0.75721255  0.87107366  1
  H  H20  1  0.25144615  0.86889001  0.87046660  1
  H  H21  1  0.31913554  0.83884720  0.71865733  1
  H  H22  1  0.17817263  0.83979863  0.71979532  1
  H  H23  1  0.31903881  0.63985413  0.72654640  1
  H  H24  1  0.17876682  0.64047256  0.72679695  1
  H  H25  1  0.41851778  0.68446820  0.58562245  1
  H  H26  1  0.41851787  0.68446920  0.41435984  1
  H  H27  1  0.17876659  0.64047196  0.27320625  1
  H  H28  1  0.31903839  0.63985580  0.27344352  1
  H  H29  1  0.17816943  0.83979632  0.28020959  1
  H  H30  1  0.31913193  0.83884897  0.28133926  1
  H  H31  1  0.25144569  0.86888703  0.12953439  1
  H  H32  1  0.31630486  0.75469210  0.13079735  1
  H  H33  1  0.18377213  0.75720644  0.12892962  1
  H  H34  1  0.07853180  0.68642019  0.41466925  1
  H  H35  1  0.07853025  0.68641963  0.58534336  1
  H  H36  1  0.68377166  0.25720384  0.12892876  1
  H  H37  1  0.81630467  0.25469826  0.13079801  1
  H  H38  1  0.75143998  0.36888922  0.12953563  1
  H  H39  1  0.67816213  0.33979132  0.28020945  1
  H  H40  1  0.81912436  0.33885381  0.28134010  1
  H  H41  1  0.67877178  0.14046741  0.27320565  1
  H  H42  1  0.81904368  0.13986037  0.27344386  1
  H  H43  1  0.57853363  0.18641850  0.41466841  1
  H  H44  1  0.57853132  0.18641785  0.58534250  1
  H  H45  1  0.81904159  0.13985785  0.72654641  1
  H  H46  1  0.67876968  0.14046711  0.72679687  1
  H  H47  1  0.81912516  0.33885071  0.71865699  1
  H  H48  1  0.67816247  0.33979312  0.71979518  1
  H  H49  1  0.75143426  0.36889064  0.87046554  1
  H  H50  1  0.68376330  0.25720628  0.87107431  1
  H  H51  1  0.81629554  0.25469783  0.86919782  1
  H  H52  1  0.91851840  0.18446793  0.58562315  1
  H  H53  1  0.91852020  0.18446902  0.41436009  1
  H  H54  1  0.74530407  0.68370097  0.13080001  1
  H  H55  1  0.74278335  0.81623680  0.12892996  1
  H  H56  1  0.63110903  0.74855442  0.12954436  1
  H  H57  1  0.66115057  0.68086926  0.28134713  1
  H  H58  1  0.66020683  0.82183449  0.28021636  1
  H  H59  1  0.86013885  0.68095759  0.27344124  1
  H  H60  1  0.85952858  0.82123407  0.27320092  1
  H  H61  1  0.81552912  0.58147369  0.41436239  1
  H  H62  1  0.81552946  0.58147359  0.58562742  1
  H  H63  1  0.85952454  0.82123609  0.72679231  1
  H  H64  1  0.86013803  0.68095929  0.72654936  1
  H  H65  1  0.66020251  0.82183388  0.71978810  1
  H  H66  1  0.66114994  0.68086832  0.71865349  1
  H  H67  1  0.63109672  0.74855399  0.87045878  1
  H  H68  1  0.74529161  0.68369985  0.86919743  1
  H  H69  1  0.74277107  0.81623581  0.87107071  1
  H  H70  1  0.81358070  0.92147068  0.58533715  1
  H  H71  1  0.81357992  0.92147161  0.41466176  1
  Pb  Pb72  1  0.99609025  0.99742194  0.00000880  1
  Pb  Pb73  1  0.00260393  0.50393286  0.99999844  1
  Pb  Pb74  1  0.50258989  0.00385251  0.00002537  1
  Pb  Pb75  1  0.49610769  0.49736099  0.00000999  1
  C  C76  1  0.20521019  0.25113572  0.73980816  1
  C  C77  1  0.31718012  0.25129445  0.70152512  1
  C  C78  1  0.31519600  0.25138931  0.59738647  1
  C  C79  1  0.31322286  0.34657634  0.54810578  1
  C  C80  1  0.31322381  0.34655683  0.45188722  1
  C  C81  1  0.31519478  0.25142293  0.40260905  1
  C  C82  1  0.31718197  0.25129543  0.29846835  1
  C  C83  1  0.20521265  0.25114308  0.26019053  1
  C  C84  1  0.31428684  0.15621431  0.45186984  1
  C  C85  1  0.31428833  0.15623228  0.54812440  1
  C  C86  1  0.24887436  0.79479263  0.73980740  1
  C  C87  1  0.24870337  0.68282120  0.70152295  1
  C  C88  1  0.24859816  0.68480388  0.59738641  1
  C  C89  1  0.34378068  0.68571066  0.54812896  1
  C  C90  1  0.34378635  0.68571208  0.45186111  1
  C  C91  1  0.24859037  0.68480425  0.40261135  1
  C  C92  1  0.24870411  0.68282118  0.29847491  1
  C  C93  1  0.24887183  0.79479262  0.26019223  1
  C  C94  1  0.15343032  0.68677581  0.45188600  1
  C  C95  1  0.15342627  0.68677638  0.54811823  1
  C  C96  1  0.74886677  0.29479327  0.26019212  1
  C  C97  1  0.74870813  0.18282114  0.29847530  1
  C  C98  1  0.74858908  0.18480402  0.40261079  1
  C  C99  1  0.65343452  0.18677467  0.45188513  1
  C  C100  1  0.65342479  0.18677515  0.54811737  1
  C  C101  1  0.74860268  0.18480307  0.59738557  1
  C  C102  1  0.74870353  0.18282005  0.70152312  1
  C  C103  1  0.74886717  0.29479188  0.73980749  1
  C  C104  1  0.84377927  0.18571006  0.54813045  1
  C  C105  1  0.84378974  0.18571214  0.45186238  1
  C  C106  1  0.70520593  0.75113148  0.26019640  1
  C  C107  1  0.81717641  0.75128940  0.29847417  1
  C  C108  1  0.81519539  0.75141336  0.40261663  1
  C  C109  1  0.81428684  0.65621033  0.45186350  1
  C  C110  1  0.81428806  0.65621991  0.54813219  1
  C  C111  1  0.81519603  0.75139670  0.59737717  1
  C  C112  1  0.81717435  0.75129266  0.70152145  1
  C  C113  1  0.70520266  0.75112958  0.73980431  1
  C  C114  1  0.81322374  0.84657080  0.54811731  1
  C  C115  1  0.81322458  0.84655906  0.45187836  1
  I  I116  1  0.25181544  0.02957633  1.00000410  1
  I  I117  1  0.25153656  0.46353315  0.99998650  1
  I  I118  1  0.75152439  0.96350211  0.99999945  1
  I  I119  1  0.75182668  0.52958328  1.00000035  1
  I  I120  1  0.97042419  0.24819630  0.00000067  1
  I  I121  1  0.03650115  0.74849103  0.00000341  1
  I  I122  1  0.53648732  0.24843037  0.00000829  1
  I  I123  1  0.47042433  0.74815088  1.00000529  1
  I  I124  1  0.01353430  0.00521577  0.78181244  1
  I  I125  1  0.01352620  0.00521536  0.21820659  1
  I  I126  1  0.99477990  0.48647371  0.78180548  1
  I  I127  1  0.99478530  0.48647473  0.21819116  1
  I  I128  1  0.49479239  0.98647386  0.78182717  1
  I  I129  1  0.49478887  0.98646977  0.21822748  1
  I  I130  1  0.51354132  0.50520297  0.78181093  1
  I  I131  1  0.51353560  0.50520726  0.21820661  1
  N  N132  1  0.20682013  0.24984039  0.84346174  1
  N  N133  1  0.20682976  0.24984828  0.15653719  1
  N  N134  1  0.25016802  0.79317153  0.84346296  1
  N  N135  1  0.25016951  0.79317115  0.15653750  1
  N  N136  1  0.75016585  0.29317207  0.15653736  1
  N  N137  1  0.75016126  0.29317111  0.84346303  1
  N  N138  1  0.70682319  0.74983623  0.15654196  1
  N  N139  1  0.70681305  0.74983447  0.84345862  1
