# generated using pymatgen
data_H24PbC24S5(I2N)2
_symmetry_space_group_name_H-M   'P 1'
_cell_length_a   12.27543489
_cell_length_b   12.23984412
_cell_length_c   30.19244208
_cell_angle_alpha   90.00721510
_cell_angle_beta   90.00952103
_cell_angle_gamma   89.94893799
_symmetry_Int_Tables_number   1
_chemical_formula_structural   H24PbC24S5(I2N)2
_chemical_formula_sum   'H96 Pb4 C96 S20 I16 N8'
_cell_volume   4536.39469366
_cell_formula_units_Z   4
loop_
 _symmetry_equiv_pos_site_id
 _symmetry_equiv_pos_as_xyz
  1  'x, y, z'
loop_
 _atom_site_type_symbol
 _atom_site_label
 _atom_site_symmetry_multiplicity
 _atom_site_fract_x
 _atom_site_fract_y
 _atom_site_fract_z
 _atom_site_occupancy
  H  H0  1  0.29348306  0.10627202  0.91680855  1
  H  H1  1  0.29012091  0.23370496  0.93442940  1
  H  H2  1  0.17411324  0.16337813  0.93104279  1
  H  H3  1  0.17950506  0.28659817  0.86908951  1
  H  H4  1  0.18768890  0.14780020  0.85138909  1
  H  H5  1  0.39472964  0.16455384  0.85136023  1
  H  H6  1  0.38220263  0.30464197  0.86477476  1
  H  H7  1  0.33561050  0.44267248  0.80109982  1
  H  H8  1  0.31549447  0.44224158  0.71434496  1
  H  H9  1  0.30329804  0.05385518  0.67246642  1
  H  H10  1  0.28709628  0.05341792  0.58603688  1
  H  H11  1  0.28225407  0.44136167  0.54316570  1
  H  H12  1  0.26376706  0.44179628  0.45701283  1
  H  H13  1  0.24978484  0.05397676  0.41353587  1
  H  H14  1  0.22648264  0.05572296  0.32746373  1
  H  H15  1  0.21950320  0.44494699  0.28667088  1
  H  H16  1  0.18676213  0.44765989  0.20029591  1
  H  H17  1  0.12797183  0.31289789  0.13748610  1
  H  H18  1  0.10887400  0.17350273  0.15113952  1
  H  H19  1  0.32904749  0.28245323  0.12965485  1
  H  H20  1  0.31400981  0.14400844  0.14695934  1
  H  H21  1  0.21148631  0.23877046  0.06604015  1
  H  H22  1  0.19923498  0.11106075  0.08321368  1
  H  H23  1  0.32161558  0.16051492  0.06747082  1
  H  H24  1  0.10673409  0.70424999  0.91667319  1
  H  H25  1  0.23390409  0.70645274  0.93438441  1
  H  H26  1  0.16462114  0.82334000  0.93163061  1
  H  H27  1  0.28641379  0.81967834  0.86951723  1
  H  H28  1  0.14801862  0.81132005  0.85181043  1
  H  H29  1  0.16577393  0.60386398  0.85117881  1
  H  H30  1  0.30538738  0.61655142  0.86474033  1
  H  H31  1  0.44313132  0.66415381  0.80095951  1
  H  H32  1  0.44207073  0.68459907  0.71414211  1
  H  H33  1  0.05410614  0.69655317  0.67268121  1
  H  H34  1  0.05293774  0.71288304  0.58632031  1
  H  H35  1  0.43960091  0.71742960  0.54327417  1
  H  H36  1  0.44016381  0.73603488  0.45703219  1
  H  H37  1  0.05379663  0.75024744  0.41338525  1
  H  H38  1  0.05590318  0.77355387  0.32736148  1
  H  H39  1  0.44402158  0.78130791  0.28680446  1
  H  H40  1  0.44687436  0.81344743  0.20036651  1
  H  H41  1  0.31261348  0.87167531  0.13749692  1
  H  H42  1  0.17365360  0.89075345  0.15109189  1
  H  H43  1  0.28255482  0.66987143  0.12955690  1
  H  H44  1  0.14420164  0.68527541  0.14652489  1
  H  H45  1  0.24009579  0.78775011  0.06581806  1
  H  H46  1  0.11244957  0.80023861  0.08265912  1
  H  H47  1  0.16208352  0.67734952  0.06708693  1
  H  H48  1  0.89292326  0.21807875  0.08195888  1
  H  H49  1  0.76427463  0.22044896  0.06614558  1
  H  H50  1  0.83225088  0.33735415  0.07013215  1
  H  H51  1  0.71386588  0.32476567  0.13297037  1
  H  H52  1  0.85320536  0.31633549  0.14948682  1
  H  H53  1  0.83844450  0.10890039  0.14782868  1
  H  H54  1  0.69827384  0.12071552  0.13464722  1
  H  H55  1  0.56019853  0.16381270  0.19854056  1
  H  H56  1  0.56079190  0.18246534  0.28565323  1
  H  H57  1  0.94784274  0.19670218  0.32766126  1
  H  H58  1  0.94754121  0.21332612  0.41398767  1
  H  H59  1  0.55989440  0.21792514  0.45629340  1
  H  H60  1  0.55833634  0.23616547  0.54248288  1
  H  H61  1  0.94414650  0.25029089  0.58645679  1
  H  H62  1  0.94178876  0.27345930  0.67262525  1
  H  H63  1  0.55383437  0.28142347  0.71326937  1
  H  H64  1  0.55142092  0.31616156  0.79924275  1
  H  H65  1  0.68507203  0.37519951  0.86193047  1
  H  H66  1  0.82361556  0.39537870  0.84813557  1
  H  H67  1  0.71793454  0.17513388  0.87229383  1
  H  H68  1  0.85519390  0.18989523  0.85391113  1
  H  H69  1  0.76306503  0.29930698  0.93428243  1
  H  H70  1  0.88836343  0.31320582  0.91528175  1
  H  H71  1  0.84429704  0.19052025  0.93356729  1
  H  H72  1  0.78006286  0.89185084  0.08104144  1
  H  H73  1  0.77877891  0.76233175  0.06578364  1
  H  H74  1  0.66163927  0.82990699  0.06957847  1
  H  H75  1  0.67510626  0.71318587  0.13291161  1
  H  H76  1  0.68313291  0.85338816  0.14885506  1
  H  H77  1  0.88979086  0.83888887  0.14768389  1
  H  H78  1  0.87896860  0.69833406  0.13458374  1
  H  H79  1  0.83592770  0.55987862  0.19844687  1
  H  H80  1  0.81772152  0.56050691  0.28557411  1
  H  H81  1  0.80333166  0.94860670  0.32759589  1
  H  H82  1  0.78687253  0.94860243  0.41383699  1
  H  H83  1  0.78250847  0.56014628  0.45631140  1
  H  H84  1  0.76428490  0.55872697  0.54256490  1
  H  H85  1  0.74990381  0.94557343  0.58676198  1
  H  H86  1  0.72663337  0.94251422  0.67284590  1
  H  H87  1  0.71842364  0.55271360  0.71314122  1
  H  H88  1  0.68361501  0.54990877  0.79913112  1
  H  H89  1  0.62432093  0.68438753  0.86191292  1
  H  H90  1  0.60401830  0.82325571  0.84793819  1
  H  H91  1  0.82359361  0.71781400  0.87269734  1
  H  H92  1  0.80842596  0.85553864  0.85442002  1
  H  H93  1  0.69784584  0.76233543  0.93420663  1
  H  H94  1  0.68433156  0.88838914  0.91530076  1
  H  H95  1  0.80639566  0.84326294  0.93412711  1
  Pb  Pb96  1  0.00476742  0.99765439  0.99556257  1
  Pb  Pb97  1  0.00398136  0.50282315  0.00023280  1
  Pb  Pb98  1  0.50547115  0.00916933  0.00093295  1
  Pb  Pb99  1  0.50381014  0.50061276  0.00534510  1
  C  C100  1  0.23170029  0.21369409  0.86831392  1
  C  C101  1  0.34212637  0.23673108  0.84711581  1
  C  C102  1  0.33184607  0.26596284  0.79932849  1
  C  C103  1  0.32861076  0.36904579  0.78108309  1
  C  C104  1  0.31850440  0.36838788  0.73440500  1
  C  C105  1  0.31374078  0.26399415  0.71648957  1
  C  C106  1  0.30490566  0.23196139  0.67066477  1
  C  C107  1  0.30050836  0.12780300  0.65243317  1
  C  C108  1  0.29191402  0.12757519  0.60588005  1
  C  C109  1  0.28965899  0.23166285  0.58740010  1
  C  C110  1  0.28094153  0.26301564  0.54159365  1
  C  C111  1  0.27780841  0.36727074  0.52325574  1
  C  C112  1  0.26772747  0.36746479  0.47678119  1
  C  C113  1  0.26278012  0.26337333  0.45832973  1
  C  C114  1  0.25090697  0.23239313  0.41258011  1
  C  C115  1  0.24509567  0.12855565  0.39394718  1
  C  C116  1  0.23238740  0.12948230  0.34752757  1
  C  C117  1  0.22800200  0.23397805  0.32957517  1
  C  C118  1  0.21408213  0.26703922  0.28406874  1
  C  C119  1  0.21030984  0.37179547  0.26648136  1
  C  C120  1  0.19284359  0.37363816  0.22016461  1
  C  C121  1  0.18301950  0.27100346  0.20187459  1
  C  C122  1  0.16589072  0.24251098  0.15429660  1
  C  C123  1  0.27247130  0.21304534  0.13106716  1
  C  C124  1  0.21401216  0.76708056  0.86856649  1
  C  C125  1  0.23761932  0.65671752  0.84707300  1
  C  C126  1  0.26685747  0.66736662  0.79930893  1
  C  C127  1  0.36958120  0.67098415  0.78097396  1
  C  C128  1  0.36856486  0.68121224  0.73429012  1
  C  C129  1  0.26429280  0.68568922  0.71646743  1
  C  C130  1  0.23177763  0.69481868  0.67070121  1
  C  C131  1  0.12776426  0.69935193  0.65259898  1
  C  C132  1  0.12710721  0.70804967  0.60604312  1
  C  C133  1  0.23071650  0.71029462  0.58741967  1
  C  C134  1  0.26182764  0.71895617  0.54159293  1
  C  C135  1  0.36584165  0.72193822  0.52329742  1
  C  C136  1  0.36611793  0.73203051  0.47682411  1
  C  C137  1  0.26235340  0.73709853  0.45835101  1
  C  C138  1  0.23168407  0.74906612  0.41257935  1
  C  C139  1  0.12827860  0.75490126  0.39386080  1
  C  C140  1  0.12940821  0.76761258  0.34746209  1
  C  C141  1  0.23359595  0.77200878  0.32956890  1
  C  C142  1  0.26664863  0.78586089  0.28406445  1
  C  C143  1  0.37113790  0.78997773  0.26653456  1
  C  C144  1  0.37304648  0.80706001  0.22019881  1
  C  C145  1  0.27072251  0.81622023  0.20182229  1
  C  C146  1  0.24247217  0.83348663  0.15422044  1
  C  C147  1  0.21335713  0.72676231  0.13083980  1
  C  C148  1  0.78701061  0.27297661  0.13256164  1
  C  C149  1  0.76576828  0.16040364  0.15259787  1
  C  C150  1  0.73632745  0.16714925  0.20051042  1
  C  C151  1  0.63347367  0.16957060  0.21875003  1
  C  C152  1  0.63418618  0.17936492  0.26543746  1
  C  C153  1  0.73824375  0.18472514  0.28336490  1
  C  C154  1  0.77009272  0.19407984  0.32920630  1
  C  C155  1  0.87380195  0.19917253  0.34756342  1
  C  C156  1  0.87362850  0.20814026  0.39410959  1
  C  C157  1  0.76969674  0.21024109  0.41248640  1
  C  C158  1  0.73772966  0.21931554  0.45822683  1
  C  C159  1  0.63353125  0.22238675  0.47634168  1
  C  C160  1  0.63263893  0.23223635  0.52282400  1
  C  C161  1  0.73617987  0.23700239  0.54149857  1
  C  C162  1  0.76640465  0.24808836  0.58734225  1
  C  C163  1  0.86977378  0.25427891  0.60605463  1
  C  C164  1  0.86852174  0.26675935  0.65245973  1
  C  C165  1  0.76430153  0.27046733  0.67034573  1
  C  C166  1  0.73143165  0.28491666  0.71582981  1
  C  C167  1  0.62701092  0.28979925  0.73336453  1
  C  C168  1  0.62534729  0.30791289  0.77964404  1
  C  C169  1  0.72765187  0.31707016  0.79798762  1
  C  C170  1  0.75565475  0.33705314  0.84539642  1
  C  C171  1  0.78664967  0.23220961  0.86973888  1
  C  C172  1  0.72651196  0.78658744  0.13221184  1
  C  C173  1  0.83875478  0.76589205  0.15242204  1
  C  C174  1  0.83194836  0.73652044  0.20037561  1
  C  C175  1  0.82996753  0.63338037  0.21864586  1
  C  C176  1  0.82048560  0.63409070  0.26534166  1
  C  C177  1  0.81499624  0.73845129  0.28328053  1
  C  C178  1  0.80576228  0.77036171  0.32914028  1
  C  C179  1  0.80081965  0.87437627  0.34748121  1
  C  C180  1  0.79189742  0.87436391  0.39402488  1
  C  C181  1  0.78967029  0.77022621  0.41244968  1
  C  C182  1  0.78062120  0.73841906  0.45822260  1
  C  C183  1  0.77780760  0.63395718  0.47637618  1
  C  C184  1  0.76798896  0.63317093  0.52284995  1
  C  C185  1  0.76300105  0.73705810  0.54148988  1
  C  C186  1  0.75185746  0.76724582  0.58735473  1
  C  C187  1  0.74577092  0.87073183  0.60622979  1
  C  C188  1  0.73320270  0.86906791  0.65262300  1
  C  C189  1  0.72927826  0.76440544  0.67037904  1
  C  C190  1  0.71468445  0.73091361  0.71581004  1
  C  C191  1  0.70987601  0.62603855  0.73327949  1
  C  C192  1  0.69179679  0.62415901  0.77957458  1
  C  C193  1  0.68262557  0.72676195  0.79799110  1
  C  C194  1  0.66232530  0.75508763  0.84536650  1
  C  C195  1  0.76632094  0.78649906  0.87002771  1
  S  S196  1  0.19588005  0.17106955  0.24213912  1
  S  S197  1  0.24016595  0.33126794  0.37132238  1
  S  S198  1  0.27149113  0.16500268  0.49990128  1
  S  S199  1  0.29838315  0.32996317  0.62898399  1
  S  S200  1  0.32239536  0.16695063  0.75853090  1
  S  S201  1  0.17099448  0.80326268  0.24204492  1
  S  S202  1  0.33049246  0.75982198  0.37139193  1
  S  S203  1  0.16417948  0.72847472  0.49987737  1
  S  S204  1  0.32908574  0.70150230  0.62888021  1
  S  S205  1  0.16792019  0.67653425  0.75859938  1
  S  S206  1  0.82727385  0.30319673  0.75773545  1
  S  S207  1  0.66747152  0.25750411  0.62854803  1
  S  S208  1  0.83484801  0.22883794  0.50014019  1
  S  S209  1  0.67208899  0.20041152  0.37078436  1
  S  S210  1  0.83497491  0.17734079  0.24129585  1
  S  S211  1  0.69633514  0.82675420  0.75779249  1
  S  S212  1  0.74217422  0.66767459  0.62842536  1
  S  S213  1  0.77086211  0.83592989  0.50009771  1
  S  S214  1  0.79924929  0.67213981  0.37077360  1
  S  S215  1  0.82186972  0.83545632  0.24118391  1
  I  I216  1  0.25419074  0.93890157  0.99896307  1
  I  I217  1  0.25110744  0.56666874  0.99899389  1
  I  I218  1  0.75554098  0.06642090  0.00247381  1
  I  I219  1  0.75238441  0.43961273  0.99985525  1
  I  I220  1  0.05865167  0.25005232  0.00089635  1
  I  I221  1  0.92934036  0.75131144  0.00013119  1
  I  I222  1  0.42536634  0.25405485  0.99891557  1
  I  I223  1  0.55082378  0.75494147  1.00005797  1
  I  I224  1  0.00031914  0.00025248  0.89160810  1
  I  I225  1  0.00795682  0.99972888  0.10123585  1
  I  I226  1  0.99783710  0.49673668  0.89481390  1
  I  I227  1  0.99983554  0.50190227  0.10551774  1
  I  I228  1  0.50741359  1.00080591  0.89542447  1
  I  I229  1  0.49989054  0.00261496  0.10610456  1
  I  I230  1  0.50066351  0.49962256  0.89732443  1
  I  I231  1  0.50213086  0.49969369  0.10913110  1
  N  N232  1  0.24760179  0.17716673  0.91525124  1
  N  N233  1  0.25016916  0.17858883  0.08432066  1
  N  N234  1  0.17764492  0.74993751  0.91545346  1
  N  N235  1  0.17976129  0.74914593  0.08393810  1
  N  N236  1  0.82125946  0.26170759  0.08514096  1
  N  N237  1  0.82260412  0.25942208  0.91586368  1
  N  N238  1  0.73732324  0.81973472  0.08456423  1
  N  N239  1  0.73796548  0.82219058  0.91610518  1
