# generated using pymatgen
data_H14PbC12(I2N)2
_symmetry_space_group_name_H-M   'P 1'
_cell_length_a   12.56597790
_cell_length_b   12.39465544
_cell_length_c   14.63325602
_cell_angle_alpha   89.39596136
_cell_angle_beta   89.08903151
_cell_angle_gamma   88.86580288
_symmetry_Int_Tables_number   1
_chemical_formula_structural   H14PbC12(I2N)2
_chemical_formula_sum   'H56 Pb4 C48 I16 N8'
_cell_volume   2278.28997186
_cell_formula_units_Z   4
loop_
 _symmetry_equiv_pos_site_id
 _symmetry_equiv_pos_as_xyz
  1  'x, y, z'
loop_
 _atom_site_type_symbol
 _atom_site_label
 _atom_site_symmetry_multiplicity
 _atom_site_fract_x
 _atom_site_fract_y
 _atom_site_fract_z
 _atom_site_occupancy
  H  H0  1  0.16277619  0.16845100  0.79560425  1
  H  H1  1  0.13225719  0.30108503  0.80827040  1
  H  H2  1  0.20771116  0.23756561  0.88479434  1
  H  H3  1  0.35528422  0.22111555  0.78497109  1
  H  H4  1  0.30816366  0.35796179  0.78378799  1
  H  H5  1  0.33853665  0.10583580  0.65229315  1
  H  H6  1  0.31600330  0.09391118  0.48474289  1
  H  H7  1  0.17102741  0.08866438  0.37129605  1
  H  H8  1  0.15462198  0.08639960  0.20054829  1
  H  H9  1  0.20792294  0.23578597  0.11562434  1
  H  H10  1  0.27736756  0.39348761  0.17312283  1
  H  H11  1  0.30166647  0.40869561  0.34276060  1
  H  H12  1  0.18516369  0.41874052  0.48037114  1
  H  H13  1  0.20841229  0.43019782  0.64801264  1
  H  H14  1  0.17038981  0.85154224  0.78950930  1
  H  H15  1  0.29840055  0.87327432  0.81310285  1
  H  H16  1  0.22181521  0.79846397  0.88422369  1
  H  H17  1  0.22016854  0.64958870  0.79044188  1
  H  H18  1  0.35435629  0.69340526  0.78900928  1
  H  H19  1  0.10914070  0.66588632  0.65710106  1
  H  H20  1  0.09843858  0.68675812  0.48894184  1
  H  H21  1  0.08763474  0.82429191  0.37028661  1
  H  H22  1  0.08421496  0.83662698  0.19967341  1
  H  H23  1  0.23437259  0.78568545  0.11563541  1
  H  H24  1  0.39611224  0.72138522  0.17519074  1
  H  H25  1  0.41220488  0.70005166  0.34491066  1
  H  H26  1  0.41646363  0.81243457  0.48083837  1
  H  H27  1  0.42602109  0.79217208  0.64955432  1
  H  H28  1  0.83253183  0.34558888  0.20333675  1
  H  H29  1  0.70265945  0.38231672  0.19749481  1
  H  H30  1  0.75759655  0.30550151  0.11647490  1
  H  H31  1  0.77567099  0.15223330  0.21280591  1
  H  H32  1  0.64215423  0.20265282  0.21712368  1
  H  H33  1  0.89238791  0.16649957  0.34539590  1
  H  H34  1  0.90400475  0.18354949  0.51387520  1
  H  H35  1  0.90942612  0.31959805  0.63646518  1
  H  H36  1  0.90578333  0.33267523  0.80663006  1
  H  H37  1  0.75202173  0.28460199  0.88766413  1
  H  H38  1  0.59730449  0.21915282  0.82509896  1
  H  H39  1  0.58818229  0.19782544  0.65514766  1
  H  H40  1  0.58319651  0.31503302  0.52311092  1
  H  H41  1  0.57284217  0.29850867  0.35476651  1
  H  H42  1  0.64973252  0.82903721  0.20894544  1
  H  H43  1  0.63383025  0.69610105  0.18907410  1
  H  H44  1  0.70189600  0.77434034  0.11467428  1
  H  H45  1  0.84917527  0.78778093  0.20758828  1
  H  H46  1  0.81356970  0.64891643  0.20918057  1
  H  H47  1  0.83694340  0.89580017  0.34310110  1
  H  H48  1  0.81598732  0.90504091  0.51162199  1
  H  H49  1  0.67247366  0.91421376  0.62705048  1
  H  H50  1  0.65620947  0.91775241  0.79812147  1
  H  H51  1  0.70726201  0.76739484  0.88192922  1
  H  H52  1  0.77498791  0.60407122  0.82300517  1
  H  H53  1  0.80132036  0.58813249  0.65316940  1
  H  H54  1  0.69023975  0.58333360  0.51615456  1
  H  H55  1  0.71253152  0.57420172  0.34793770  1
  Pb  Pb56  1  0.98052735  -0.00052903  0.98173557  1
  Pb  Pb57  1  1.01036225  0.50362456  0.01140098  1
  Pb  Pb58  1  0.48519083  0.00565308  0.02020831  1
  Pb  Pb59  1  0.50372846  0.49689119  0.98631889  1
  C  C60  1  0.29063111  0.27560266  0.76273198  1
  C  C61  1  0.27500728  0.26869506  0.66120836  1
  C  C62  1  0.30388827  0.17400058  0.61456941  1
  C  C63  1  0.29065388  0.16703499  0.52062389  1
  C  C64  1  0.24907013  0.25558639  0.47125937  1
  C  C65  1  0.23765654  0.24963763  0.37164508  1
  C  C66  1  0.19711065  0.15739816  0.33040463  1
  C  C67  1  0.18709867  0.15414682  0.23674232  1
  C  C68  1  0.25564805  0.33004858  0.22151062  1
  C  C69  1  0.26732424  0.33646749  0.31483856  1
  C  C70  1  0.21992058  0.35052275  0.51795082  1
  C  C71  1  0.23246165  0.35674983  0.61206632  1
  C  C72  1  0.27331763  0.71379092  0.76680190  1
  C  C73  1  0.26804928  0.72805982  0.66457861  1
  C  C74  1  0.17582723  0.69976360  0.61849928  1
  C  C75  1  0.16981654  0.71156573  0.52402284  1
  C  C76  1  0.25680005  0.75100895  0.47317413  1
  C  C77  1  0.25110066  0.76103352  0.37299363  1
  C  C78  1  0.15746392  0.79889491  0.33039985  1
  C  C79  1  0.15360303  0.80653127  0.23645350  1
  C  C80  1  0.33172966  0.74265783  0.22270892  1
  C  C81  1  0.33860001  0.73264509  0.31660521  1
  C  C82  1  0.34929309  0.77953018  0.51941304  1
  C  C83  1  0.35447229  0.76865183  0.61410100  1
  C  C84  1  0.72398822  0.21866438  0.23728437  1
  C  C85  1  0.73192941  0.23144856  0.33904825  1
  C  C86  1  0.82531348  0.20054826  0.38451180  1
  C  C87  1  0.83182248  0.21023949  0.47901140  1
  C  C88  1  0.74412863  0.24990035  0.53019221  1
  C  C89  1  0.74829102  0.25738323  0.63044532  1
  C  C90  1  0.83910857  0.29411736  0.67478366  1
  C  C91  1  0.83902841  0.30223012  0.76881811  1
  C  C92  1  0.66277080  0.23935400  0.77888532  1
  C  C93  1  0.65987531  0.22897416  0.68514852  1
  C  C94  1  0.65079169  0.28151725  0.48438392  1
  C  C95  1  0.64512732  0.27277204  0.38987021  1
  C  C96  1  0.78951516  0.73015725  0.23174127  1
  C  C97  1  0.77586262  0.73463738  0.33415248  1
  C  C98  1  0.80400286  0.82762483  0.38115029  1
  C  C99  1  0.79164418  0.83307675  0.47567980  1
  C  C100  1  0.75150010  0.74482875  0.52540168  1
  C  C101  1  0.73895677  0.75029360  0.62532278  1
  C  C102  1  0.69830626  0.84443975  0.66737321  1
  C  C103  1  0.68794205  0.84827396  0.76118684  1
  C  C104  1  0.75430275  0.66881253  0.77523440  1
  C  C105  1  0.76710751  0.66202500  0.68157426  1
  C  C106  1  0.72378105  0.65138635  0.47839546  1
  C  C107  1  0.73575068  0.64653729  0.38378994  1
  I  I108  1  0.23377925  0.02700230  0.01602145  1
  I  I109  1  0.26028906  0.44068752  0.98841422  1
  I  I110  1  0.73504731  0.94887815  0.98936811  1
  I  I111  1  0.75990863  0.52184885  0.99806442  1
  I  I112  1  -0.02403083  0.25135260  0.99649053  1
  I  I113  1  0.05700262  0.75208897  0.00030321  1
  I  I114  1  0.56132040  0.24749377  0.01949727  1
  I  I115  1  0.47209648  0.75043761  0.98905544  1
  I  I116  1  0.03160044  0.01128926  0.75965639  1
  I  I117  1  0.94500470  0.00639192  0.19848799  1
  I  I118  1  0.03420449  0.50419695  0.78664290  1
  I  I119  1  0.99104215  0.47535162  0.23010826  1
  I  I120  1  0.44969646  0.00670530  0.79549016  1
  I  I121  1  0.50550507  0.98046457  0.23694042  1
  I  I122  1  0.51613173  0.49693753  0.77354626  1
  I  I123  1  0.53505996  0.51233356  0.21983149  1
  N  N124  1  0.19231486  0.24275262  0.81569684  1
  N  N125  1  0.21647860  0.23979537  0.18529929  1
  N  N126  1  0.23903381  0.81516352  0.81607388  1
  N  N127  1  0.24016446  0.77872166  0.18554029  1
  N  N128  1  0.75708570  0.31885740  0.18607589  1
  N  N129  1  0.75170944  0.27513416  0.81795230  1
  N  N130  1  0.68750668  0.75926493  0.18345942  1
  N  N131  1  0.71581216  0.76108958  0.81206734  1
