# generated using pymatgen
data_H20PbC16S3(I2N)2
_symmetry_space_group_name_H-M   'P 1'
_cell_length_a   12.36798684
_cell_length_b   12.36836686
_cell_length_c   22.36927540
_cell_angle_alpha   90.00305616
_cell_angle_beta   90.00377039
_cell_angle_gamma   90.00083353
_symmetry_Int_Tables_number   1
_chemical_formula_structural   H20PbC16S3(I2N)2
_chemical_formula_sum   'H80 Pb4 C64 S12 I16 N8'
_cell_volume   3421.86827755
_cell_formula_units_Z   4
loop_
 _symmetry_equiv_pos_site_id
 _symmetry_equiv_pos_as_xyz
  1  'x, y, z'
loop_
 _atom_site_type_symbol
 _atom_site_label
 _atom_site_symmetry_multiplicity
 _atom_site_fract_x
 _atom_site_fract_y
 _atom_site_fract_z
 _atom_site_occupancy
  H  H0  1  0.30303483  0.11016660  0.88705804  1
  H  H1  1  0.18567086  0.16375661  0.91153005  1
  H  H2  1  0.29924500  0.23582462  0.91168966  1
  H  H3  1  0.17735432  0.28669554  0.82825115  1
  H  H4  1  0.18464144  0.14966842  0.80378847  1
  H  H5  1  0.37671932  0.30853894  0.81401678  1
  H  H6  1  0.38926345  0.17010537  0.79524427  1
  H  H7  1  0.31803266  0.44463001  0.72976534  1
  H  H8  1  0.28124643  0.44329944  0.61391292  1
  H  H9  1  0.26563268  0.05833832  0.55812496  1
  H  H10  1  0.23423579  0.05744077  0.44248082  1
  H  H11  1  0.21794407  0.44133585  0.38564161  1
  H  H12  1  0.18377198  0.44181726  0.26923008  1
  H  H13  1  0.11608237  0.16574965  0.20371857  1
  H  H14  1  0.12579328  0.30469775  0.18529418  1
  H  H15  1  0.32677636  0.28812083  0.17411194  1
  H  H16  1  0.32109247  0.15003140  0.19682201  1
  H  H17  1  0.32668135  0.17229187  0.08879026  1
  H  H18  1  0.20960985  0.23765097  0.08887127  1
  H  H19  1  0.21204803  0.10993878  0.11039103  1
  H  H20  1  0.11012338  0.69710181  0.88707192  1
  H  H21  1  0.16378813  0.81443488  0.91152988  1
  H  H22  1  0.23579507  0.70082316  0.91168376  1
  H  H23  1  0.28667961  0.82269412  0.82824001  1
  H  H24  1  0.14964674  0.81540855  0.80378134  1
  H  H25  1  0.30849957  0.62332626  0.81401544  1
  H  H26  1  0.17006013  0.61078320  0.79524549  1
  H  H27  1  0.44459981  0.68197440  0.72977068  1
  H  H28  1  0.44329291  0.71875469  0.61392483  1
  H  H29  1  0.05833501  0.73437967  0.55811898  1
  H  H30  1  0.05744838  0.76578417  0.44247448  1
  H  H31  1  0.44135626  0.78206334  0.38563585  1
  H  H32  1  0.44181862  0.81623079  0.26922497  1
  H  H33  1  0.16572986  0.88393999  0.20373092  1
  H  H34  1  0.30468426  0.87421078  0.18529843  1
  H  H35  1  0.28808082  0.67324656  0.17410024  1
  H  H36  1  0.14999889  0.67893024  0.19683462  1
  H  H37  1  0.17217656  0.67336445  0.08880218  1
  H  H38  1  0.23757188  0.79041155  0.08888239  1
  H  H39  1  0.10987162  0.78802668  0.11043704  1
  H  H40  1  0.88937059  0.21130675  0.11038546  1
  H  H41  1  0.82909796  0.32725589  0.08910046  1
  H  H42  1  0.76163352  0.21138854  0.08881381  1
  H  H43  1  0.71294939  0.32827871  0.17435439  1
  H  H44  1  0.85100705  0.32072931  0.19697888  1
  H  H45  1  0.69392240  0.12739019  0.18520877  1
  H  H46  1  0.83276633  0.11595209  0.20357327  1
  H  H47  1  0.55756939  0.18481531  0.26933795  1
  H  H48  1  0.55839869  0.21898706  0.38574274  1
  H  H49  1  0.94244760  0.23512224  0.44231784  1
  H  H50  1  0.94178514  0.26652412  0.55796261  1
  H  H51  1  0.55694388  0.28218576  0.61400479  1
  H  H52  1  0.55591539  0.31894244  0.72986135  1
  H  H53  1  0.83133291  0.38916491  0.79509227  1
  H  H54  1  0.69277685  0.37830044  0.81391865  1
  H  H55  1  0.71222134  0.17885337  0.82847305  1
  H  H56  1  0.84929983  0.18430207  0.80394840  1
  H  H57  1  0.83498242  0.18610032  0.91178177  1
  H  H58  1  0.76474994  0.30080685  0.91163955  1
  H  H59  1  0.89048152  0.30237914  0.88706911  1
  H  H60  1  0.78875563  0.88944201  0.11043685  1
  H  H61  1  0.67277335  0.82921166  0.08911701  1
  H  H62  1  0.78862636  0.76172770  0.08882568  1
  H  H63  1  0.67173098  0.71299123  0.17434439  1
  H  H64  1  0.67928555  0.85103039  0.19699821  1
  H  H65  1  0.87261049  0.69393467  0.18521334  1
  H  H66  1  0.88407565  0.83277562  0.20358762  1
  H  H67  1  0.81518389  0.55757551  0.26933586  1
  H  H68  1  0.78101263  0.55838873  0.38573828  1
  H  H69  1  0.76489435  0.94242184  0.44231247  1
  H  H70  1  0.73349177  0.94177188  0.55795561  1
  H  H71  1  0.71781572  0.55696078  0.61401694  1
  H  H72  1  0.68106869  0.55595648  0.72986642  1
  H  H73  1  0.61087842  0.83136976  0.79509321  1
  H  H74  1  0.62173871  0.69281680  0.81391911  1
  H  H75  1  0.82120311  0.71224432  0.82846410  1
  H  H76  1  0.81575414  0.84932104  0.80394355  1
  H  H77  1  0.81400809  0.83494894  0.91178441  1
  H  H78  1  0.69925798  0.76477850  0.91163538  1
  H  H79  1  0.69775347  0.89051445  0.88708453  1
  Pb  Pb80  1  0.99946660  1.00000309  0.99558565  1
  Pb  Pb81  1  0.00008055  0.50008917  0.00136575  1
  Pb  Pb82  1  0.49972942  0.99984159  0.00138659  1
  Pb  Pb83  1  0.49988024  0.49993744  0.00572974  1
  C  C84  1  0.23019487  0.21556945  0.82487845  1
  C  C85  1  0.33522793  0.24062040  0.79174227  1
  C  C86  1  0.31609374  0.26959257  0.72777720  1
  C  C87  1  0.30836962  0.37145795  0.70322085  1
  C  C88  1  0.28911326  0.37037613  0.64083953  1
  C  C89  1  0.28184620  0.26694049  0.61702490  1
  C  C90  1  0.26417899  0.23463762  0.55574923  1
  C  C91  1  0.25787731  0.13152870  0.53138455  1
  C  C92  1  0.24086918  0.13103094  0.46901061  1
  C  C93  1  0.23367068  0.23378648  0.44430056  1
  C  C94  1  0.21678971  0.26522587  0.38283761  1
  C  C95  1  0.21010121  0.36841731  0.35870521  1
  C  C96  1  0.19192605  0.36900370  0.29625002  1
  C  C97  1  0.18446927  0.26693739  0.27196102  1
  C  C98  1  0.16818035  0.23758836  0.20776853  1
  C  C99  1  0.27524018  0.21583816  0.17587212  1
  C  C100  1  0.21554574  0.76986005  0.82487216  1
  C  C101  1  0.24058002  0.66481615  0.79174198  1
  C  C102  1  0.26955879  0.68393473  0.72777566  1
  C  C103  1  0.37142374  0.69164815  0.70322561  1
  C  C104  1  0.37036371  0.71090115  0.64084519  1
  C  C105  1  0.26692776  0.71817502  0.61702477  1
  C  C106  1  0.23463911  0.73583829  0.55574838  1
  C  C107  1  0.13152877  0.74213930  0.53137982  1
  C  C108  1  0.13104185  0.75915029  0.46900906  1
  C  C109  1  0.23379698  0.76635169  0.44430364  1
  C  C110  1  0.26524193  0.78323333  0.38283858  1
  C  C111  1  0.36842513  0.78991392  0.35870201  1
  C  C112  1  0.36900835  0.80808732  0.29624812  1
  C  C113  1  0.26693192  0.81555481  0.27196463  1
  C  C114  1  0.23757110  0.83183974  0.20777513  1
  C  C115  1  0.21579592  0.72478018  0.17587776  1
  C  C116  1  0.78458382  0.27582744  0.17598844  1
  C  C117  1  0.76154910  0.16888134  0.20771717  1
  C  C118  1  0.73245666  0.18522787  0.27192866  1
  C  C119  1  0.63043913  0.19282987  0.29629781  1
  C  C120  1  0.63124741  0.21100607  0.35875747  1
  C  C121  1  0.73449883  0.21756532  0.38280661  1
  C  C122  1  0.76610322  0.23445980  0.44424771  1
  C  C123  1  0.86890512  0.24172893  0.46889348  1
  C  C124  1  0.86854033  0.25874621  0.53126812  1
  C  C125  1  0.76547251  0.26499120  0.55569902  1
  C  C126  1  0.73332194  0.28262025  0.61699487  1
  C  C127  1  0.62992423  0.28995184  0.64088547  1
  C  C128  1  0.62903840  0.30920751  0.70326935  1
  C  C129  1  0.73096377  0.31683831  0.72774379  1
  C  C130  1  0.76019834  0.33593862  0.79168631  1
  C  C131  1  0.78399637  0.23078309  0.82498374  1
  C  C132  1  0.72418514  0.78462089  0.17599706  1
  C  C133  1  0.83113667  0.76156259  0.20772587  1
  C  C134  1  0.81479077  0.73245664  0.27193471  1
  C  C135  1  0.80717771  0.63043941  0.29629849  1
  C  C136  1  0.78899968  0.63123598  0.35875779  1
  C  C137  1  0.78244801  0.73448317  0.38281112  1
  C  C138  1  0.76555672  0.76608344  0.44425075  1
  C  C139  1  0.75828944  0.86888689  0.46888933  1
  C  C140  1  0.74127154  0.86853143  0.53126521  1
  C  C141  1  0.73502618  0.76546525  0.55569975  1
  C  C142  1  0.71740138  0.73333557  0.61699457  1
  C  C143  1  0.71006189  0.62994477  0.64089188  1
  C  C144  1  0.69081233  0.62907258  0.70327567  1
  C  C145  1  0.68319439  0.73099841  0.72774462  1
  C  C146  1  0.66410282  0.76023596  0.79168648  1
  C  C147  1  0.76927427  0.78402109  0.82498012  1
  S  S148  1  0.20020013  0.16914693  0.32668181  1
  S  S149  1  0.24825759  0.33122190  0.49987062  1
  S  S150  1  0.29959386  0.17137975  0.67333727  1
  S  S151  1  0.16914928  0.79982889  0.32668913  1
  S  S152  1  0.33123241  0.75176243  0.49987490  1
  S  S153  1  0.17135105  0.70043941  0.67333080  1
  S  S154  1  0.82902461  0.30025253  0.67324106  1
  S  S155  1  0.66877661  0.24898395  0.49988281  1
  S  S156  1  0.83041498  0.20083603  0.32657774  1
  S  S157  1  0.69978252  0.82904676  0.67323598  1
  S  S158  1  0.75103179  0.66876636  0.49988766  1
  S  S159  1  0.79918906  0.83040269  0.32658728  1
  I  I160  1  0.24896637  0.93959377  0.00055259  1
  I  I161  1  0.24929532  0.56113403  0.99960233  1
  I  I162  1  0.75028372  0.06109102  0.00034836  1
  I  I163  1  0.75059595  0.43952897  0.99951195  1
  I  I164  1  0.06056488  0.24940061  0.00044257  1
  I  I165  1  0.93902715  0.75067883  0.00044370  1
  I  I166  1  0.43904589  0.24930634  0.99963161  1
  I  I167  1  0.56063547  0.75062278  0.99947418  1
  I  I168  1  0.99987720  0.00006055  0.85534742  1
  I  I169  1  0.99911984  0.99998514  0.13824982  1
  I  I170  1  0.00036314  0.50027275  0.85879747  1
  I  I171  1  0.00019210  0.49990895  0.14335630  1
  I  I172  1  0.49941192  0.00020349  0.85881056  1
  I  I173  1  0.49973453  0.99978637  0.14336707  1
  I  I174  1  0.50011674  0.50002478  0.85974160  1
  I  I175  1  0.50034498  0.50029439  0.14557683  1
  N  N176  1  0.25528437  0.17917907  0.88731383  1
  N  N177  1  0.25486163  0.18159577  0.11253646  1
  N  N178  1  0.17916200  0.74480698  0.88731305  1
  N  N179  1  0.18151370  0.74517363  0.11255178  1
  N  N180  1  0.81847531  0.25540053  0.11260017  1
  N  N181  1  0.82073897  0.25576426  0.88737224  1
  N  N182  1  0.74462451  0.81855932  0.11261911  1
  N  N183  1  0.74432684  0.82075340  0.88737266  1
