# generated using pymatgen
data_H18PbC22(I2N)2
_symmetry_space_group_name_H-M   'P 1'
_cell_length_a   12.73535117
_cell_length_b   12.73587942
_cell_length_c   18.42090968
_cell_angle_alpha   88.14946022
_cell_angle_beta   88.15303667
_cell_angle_gamma   91.20157414
_symmetry_Int_Tables_number   1
_chemical_formula_structural   H18PbC22(I2N)2
_chemical_formula_sum   'H72 Pb4 C88 I16 N8'
_cell_volume   2983.96171990
_cell_formula_units_Z   4
loop_
 _symmetry_equiv_pos_site_id
 _symmetry_equiv_pos_as_xyz
  1  'x, y, z'
loop_
 _atom_site_type_symbol
 _atom_site_label
 _atom_site_symmetry_multiplicity
 _atom_site_fract_x
 _atom_site_fract_y
 _atom_site_fract_z
 _atom_site_occupancy
  H  H0  1  0.24835617  0.13412962  0.86351393  1
  H  H1  1  0.31870819  0.09867028  0.79225419  1
  H  H2  1  0.18286828  0.09399139  0.79290454  1
  H  H3  1  0.25029895  0.30485167  0.88744728  1
  H  H4  1  0.25199237  0.49190409  0.84687447  1
  H  H5  1  0.25226397  0.54107525  0.71532905  1
  H  H6  1  0.25045686  0.49002147  0.58937816  1
  H  H7  1  0.24999046  0.44036388  0.46118339  1
  H  H8  1  0.24974727  0.39073213  0.33342660  1
  H  H9  1  0.31712973  0.40600899  0.20709681  1
  H  H10  1  0.18128936  0.40132964  0.20774559  1
  H  H11  1  0.25164496  0.36587085  0.13648693  1
  H  H12  1  0.24969761  0.19514873  0.11255332  1
  H  H13  1  0.24800534  0.00809637  0.15312534  1
  H  H14  1  0.24773787  0.95892393  0.28467045  1
  H  H15  1  0.24954778  0.00997770  0.41062133  1
  H  H16  1  0.25001378  0.05963541  0.53881637  1
  H  H17  1  0.25025455  0.10926702  0.66657328  1
  H  H18  1  0.13412841  0.74833846  0.86350955  1
  H  H19  1  0.09397941  0.68287402  0.79289465  1
  H  H20  1  0.09866697  0.81871102  0.79225691  1
  H  H21  1  0.30485465  0.75030005  0.88744415  1
  H  H22  1  0.49191221  0.75199763  0.84687594  1
  H  H23  1  0.54108574  0.75226542  0.71533060  1
  H  H24  1  0.49003145  0.75045461  0.58938109  1
  H  H25  1  0.44037089  0.74998589  0.46118590  1
  H  H26  1  0.39073937  0.74974329  0.33343072  1
  H  H27  1  0.40133418  0.68128736  0.20774361  1
  H  H28  1  0.40602135  0.81712506  0.20710477  1
  H  H29  1  0.36587248  0.75165848  0.13649071  1
  H  H30  1  0.19514706  0.74970063  0.11255510  1
  H  H31  1  0.00809025  0.74800364  0.15312374  1
  H  H32  1  0.95891531  0.74773200  0.28466931  1
  H  H33  1  0.00996892  0.74954064  0.41061892  1
  H  H34  1  0.05962964  0.75000900  0.53881396  1
  H  H35  1  0.10926102  0.75025292  0.66656953  1
  H  H36  1  0.86587328  0.25164666  0.13649202  1
  H  H37  1  0.90134027  0.18129313  0.20775039  1
  H  H38  1  0.90602085  0.31713372  0.20709743  1
  H  H39  1  0.69514460  0.24970094  0.11255599  1
  H  H40  1  0.50808897  0.24800410  0.15312460  1
  H  H41  1  0.45891381  0.24773366  0.28466961  1
  H  H42  1  0.50996748  0.24954074  0.41061875  1
  H  H43  1  0.55962812  0.25000750  0.53881454  1
  H  H44  1  0.60925963  0.25025008  0.66656968  1
  H  H45  1  0.59397821  0.18286835  0.79290245  1
  H  H46  1  0.59866010  0.31870850  0.79224969  1
  H  H47  1  0.63412558  0.24835340  0.86350837  1
  H  H48  1  0.80485505  0.25029892  0.88744435  1
  H  H49  1  0.99191056  0.25199402  0.84687577  1
  H  H50  1  0.04108584  0.25226361  0.71533048  1
  H  H51  1  0.99003125  0.25045534  0.58938140  1
  H  H52  1  0.94037005  0.24998845  0.46118603  1
  H  H53  1  0.89073951  0.24974691  0.33343142  1
  H  H54  1  0.75165646  0.86587126  0.13648697  1
  H  H55  1  0.81712889  0.90601302  0.20710156  1
  H  H56  1  0.68128798  0.90132810  0.20773960  1
  H  H57  1  0.74969652  0.69514824  0.11255351  1
  H  H58  1  0.74800068  0.50809644  0.15312647  1
  H  H59  1  0.74773494  0.45892399  0.28467169  1
  H  H60  1  0.74954655  0.50997805  0.41062178  1
  H  H61  1  0.75001490  0.55963655  0.53881660  1
  H  H62  1  0.75025707  0.60926771  0.66657313  1
  H  H63  1  0.81871032  0.59867219  0.79225958  1
  H  H64  1  0.68286980  0.59398843  0.79289920  1
  H  H65  1  0.74834533  0.63412933  0.86351329  1
  H  H66  1  0.75029991  0.80485141  0.88744728  1
  H  H67  1  0.75199684  0.99190341  0.84687407  1
  H  H68  1  0.75226643  0.04107611  0.71532892  1
  H  H69  1  0.75045707  0.99002296  0.58937836  1
  H  H70  1  0.74998867  0.94036475  0.46118329  1
  H  H71  1  0.74974514  0.89073348  0.33342664  1
  Pb  Pb72  1  -0.00001157  1.00002892  0.99998361  1
  Pb  Pb73  1  0.99995020  0.50002238  0.99999301  1
  Pb  Pb74  1  0.50001976  1.00001533  1.00000216  1
  Pb  Pb75  1  0.49995421  0.49999676  0.00000124  1
  C  C76  1  0.25036397  0.24738874  0.77968372  1
  C  C77  1  0.25045681  0.32475732  0.82933696  1
  C  C78  1  0.25138739  0.43220005  0.80589568  1
  C  C79  1  0.25162435  0.45880134  0.73349626  1
  C  C80  1  0.25126759  0.38020803  0.67993527  1
  C  C81  1  0.25071056  0.40690041  0.60604954  1
  C  C82  1  0.25035856  0.33010200  0.55238508  1
  C  C83  1  0.24997664  0.35720638  0.47783128  1
  C  C84  1  0.24957934  0.28068552  0.42464270  1
  C  C85  1  0.24924168  0.30736284  0.34935190  1
  C  C86  1  0.24880803  0.23054440  0.29714024  1
  C  C87  1  0.24963490  0.25261168  0.22031677  1
  C  C88  1  0.24954065  0.17524281  0.17066293  1
  C  C89  1  0.24861102  0.06780012  0.19410383  1
  C  C90  1  0.24837682  0.04119862  0.26650400  1
  C  C91  1  0.24873560  0.11979072  0.32006458  1
  C  C92  1  0.24929428  0.09309893  0.39395003  1
  C  C93  1  0.24964612  0.16989712  0.44761468  1
  C  C94  1  0.25002760  0.14279300  0.52216866  1
  C  C95  1  0.25042448  0.21931349  0.57535716  1
  C  C96  1  0.25076039  0.19263635  0.65064795  1
  C  C97  1  0.25119319  0.26945507  0.70286001  1
  C  C98  1  0.24738272  0.75036190  0.77968045  1
  C  C99  1  0.32475596  0.75045819  0.82933700  1
  C  C100  1  0.43220188  0.75139117  0.80589734  1
  C  C101  1  0.45880113  0.75162646  0.73349407  1
  C  C102  1  0.38021677  0.75126758  0.67993405  1
  C  C103  1  0.40690427  0.75070900  0.60605136  1
  C  C104  1  0.33010960  0.75035515  0.55238746  1
  C  C105  1  0.35720980  0.74997179  0.47783333  1
  C  C106  1  0.28068878  0.74957360  0.42464479  1
  C  C107  1  0.30736424  0.74923787  0.34935362  1
  C  C108  1  0.23054625  0.74880494  0.29714265  1
  C  C109  1  0.25261582  0.74963594  0.22031825  1
  C  C110  1  0.17524537  0.74954170  0.17066501  1
  C  C111  1  0.06779809  0.74860894  0.19410036  1
  C  C112  1  0.04119858  0.74837116  0.26650668  1
  C  C113  1  0.11978365  0.74872818  0.32006494  1
  C  C114  1  0.09309634  0.74928574  0.39394862  1
  C  C115  1  0.16989111  0.74963906  0.44761249  1
  C  C116  1  0.14279051  0.75002240  0.52216688  1
  C  C117  1  0.21931140  0.75042070  0.57535541  1
  C  C118  1  0.19263606  0.75075719  0.65064611  1
  C  C119  1  0.26945490  0.75119106  0.70285773  1
  C  C120  1  0.75262213  0.24963679  0.22032121  1
  C  C121  1  0.67524506  0.24954197  0.17066208  1
  C  C122  1  0.56780039  0.24860948  0.19410375  1
  C  C123  1  0.54120090  0.24837248  0.26650635  1
  C  C124  1  0.61978277  0.24872932  0.32006690  1
  C  C125  1  0.59309602  0.24928611  0.39394882  1
  C  C126  1  0.66988920  0.24963920  0.44761205  1
  C  C127  1  0.64278980  0.25002161  0.52216759  1
  C  C128  1  0.71931025  0.25042038  0.57535476  1
  C  C129  1  0.69263453  0.25075639  0.65064667  1
  C  C130  1  0.76945353  0.25119079  0.70285819  1
  C  C131  1  0.74737732  0.25036220  0.77967941  1
  C  C132  1  0.82475455  0.25045645  0.82933881  1
  C  C133  1  0.93219936  0.25138774  0.80589705  1
  C  C134  1  0.95879819  0.25162445  0.73349361  1
  C  C135  1  0.88021692  0.25126752  0.67993345  1
  C  C136  1  0.90690286  0.25071009  0.60605187  1
  C  C137  1  0.83010918  0.25035588  0.55238844  1
  C  C138  1  0.85720826  0.24997355  0.47783338  1
  C  C139  1  0.78068802  0.24957514  0.42464584  1
  C  C140  1  0.80736446  0.24924022  0.34935422  1
  C  C141  1  0.73054557  0.24880651  0.29714218  1
  C  C142  1  0.74963443  0.75261289  0.22031657  1
  C  C143  1  0.74953782  0.67524330  0.17066352  1
  C  C144  1  0.74860640  0.56780086  0.19410385  1
  C  C145  1  0.74837276  0.54120041  0.26650561  1
  C  C146  1  0.74873193  0.61979060  0.32006544  1
  C  C147  1  0.74929200  0.59310039  0.39395071  1
  C  C148  1  0.74964572  0.66989692  0.44761457  1
  C  C149  1  0.75002860  0.64279370  0.52216848  1
  C  C150  1  0.75042586  0.71931490  0.57535757  1
  C  C151  1  0.75076243  0.69263745  0.65064794  1
  C  C152  1  0.75119498  0.76945534  0.70285978  1
  C  C153  1  0.75036507  0.74738922  0.77968394  1
  C  C154  1  0.75045944  0.82475702  0.82933567  1
  C  C155  1  0.75139121  0.93220063  0.80589626  1
  C  C156  1  0.75162723  0.95880129  0.73349596  1
  C  C157  1  0.75126931  0.88020955  0.67993528  1
  C  C158  1  0.75071133  0.90690085  0.60604971  1
  C  C159  1  0.75035883  0.83010366  0.55238550  1
  C  C160  1  0.74997566  0.85720755  0.47783158  1
  C  C161  1  0.74957829  0.78068648  0.42464244  1
  C  C162  1  0.74924025  0.80736302  0.34935200  1
  C  C163  1  0.74880615  0.73054542  0.29714059  1
  I  I164  1  0.25056468  0.05952060  0.98955754  1
  I  I165  1  0.24946992  0.44048141  0.01044869  1
  I  I166  1  0.74945804  0.94050015  0.01044461  1
  I  I167  1  0.75057058  0.55950520  0.98955543  1
  I  I168  1  0.94049883  0.24943659  0.01045052  1
  I  I169  1  0.05954653  0.75053700  0.98955229  1
  I  I170  1  0.55950465  0.25055646  0.98955420  1
  I  I171  1  0.44048073  0.74945251  0.01044511  1
  I  I172  1  0.02397466  0.98778967  0.82041192  1
  I  I173  1  0.97602689  0.01220181  0.17959039  1
  I  I174  1  0.98779491  0.52397361  0.82040852  1
  I  I175  1  0.01220008  0.47603611  0.17958903  1
  I  I176  1  0.48780535  0.02397278  0.82041013  1
  I  I177  1  0.51220450  0.97602607  0.17958877  1
  I  I178  1  0.52397114  0.48779879  0.82040904  1
  I  I179  1  0.47602429  0.51220145  0.17958918  1
  N  N180  1  0.24971558  0.13858395  0.80653469  1
  N  N181  1  0.25028251  0.36141569  0.19346623  1
  N  N182  1  0.13858012  0.74971287  0.80653292  1
  N  N183  1  0.36142195  0.75028506  0.19346802  1
  N  N184  1  0.86142240  0.25028659  0.19346666  1
  N  N185  1  0.63857730  0.24971477  0.80653376  1
  N  N186  1  0.75028533  0.86141619  0.19346569  1
  N  N187  1  0.74971404  0.63858364  0.80653382  1
