# generated using pymatgen
data_H28PbC26S5(I2N)2
_symmetry_space_group_name_H-M   'P 1'
_cell_length_a   11.82979723
_cell_length_b   11.93188711
_cell_length_c   32.54916618
_cell_angle_alpha   90.26208533
_cell_angle_beta   90.39087689
_cell_angle_gamma   90.82515526
_symmetry_Int_Tables_number   1
_chemical_formula_structural   H28PbC26S5(I2N)2
_chemical_formula_sum   'H112 Pb4 C104 S20 I16 N8'
_cell_volume   4593.74005374
_cell_formula_units_Z   4
loop_
 _symmetry_equiv_pos_site_id
 _symmetry_equiv_pos_as_xyz
  1  'x, y, z'
loop_
 _atom_site_type_symbol
 _atom_site_label
 _atom_site_symmetry_multiplicity
 _atom_site_fract_x
 _atom_site_fract_y
 _atom_site_fract_z
 _atom_site_occupancy
  H  H0  1  0.27257385  0.21555547  0.94408200  1
  H  H1  1  0.34219218  0.16486668  0.90414308  1
  H  H2  1  0.20787093  0.12473036  0.91238953  1
  H  H3  1  0.13632114  0.30790463  0.90162560  1
  H  H4  1  0.27586667  0.36003216  0.89380918  1
  H  H5  1  0.16043435  0.32692221  0.82856905  1
  H  H6  1  0.15727124  0.18197275  0.83871005  1
  H  H7  1  0.37275969  0.18071966  0.83623700  1
  H  H8  1  0.37282932  0.32625184  0.82690471  1
  H  H9  1  0.31112049  0.03926741  0.77613530  1
  H  H10  1  0.28703784  0.04688429  0.69583659  1
  H  H11  1  0.28102104  0.44849045  0.66148452  1
  H  H12  1  0.26563528  0.45327822  0.58140334  1
  H  H13  1  0.25695587  0.05611901  0.53854707  1
  H  H14  1  0.24176038  0.05879170  0.45848611  1
  H  H15  1  0.23525604  0.45850468  0.42094684  1
  H  H16  1  0.22006291  0.45940232  0.34078098  1
  H  H17  1  0.21191956  0.06014819  0.30112293  1
  H  H18  1  0.19003081  0.05732896  0.22102975  1
  H  H19  1  0.14017025  0.35015536  0.17325162  1
  H  H20  1  0.12519478  0.20581665  0.16265708  1
  H  H21  1  0.34945200  0.34033728  0.16922074  1
  H  H22  1  0.34303687  0.19395951  0.16229834  1
  H  H23  1  0.37172172  0.31397973  0.09729098  1
  H  H24  1  0.23063873  0.35910915  0.10253421  1
  H  H25  1  0.24044928  0.20698526  0.05611322  1
  H  H26  1  0.17219465  0.15688509  0.09684369  1
  H  H27  1  0.30895393  0.12572714  0.08940134  1
  H  H28  1  0.21027137  0.72712904  0.94279665  1
  H  H29  1  0.15136740  0.66800975  0.90156449  1
  H  H30  1  0.12371706  0.80231266  0.91291725  1
  H  H31  1  0.31059970  0.86540660  0.90162624  1
  H  H32  1  0.35601574  0.72582433  0.89430124  1
  H  H33  1  0.33000445  0.84083699  0.82872843  1
  H  H34  1  0.18330998  0.84225552  0.83791061  1
  H  H35  1  0.18001935  0.62783858  0.83588016  1
  H  H36  1  0.32656580  0.63081628  0.82648108  1
  H  H37  1  0.03718247  0.68972396  0.77593117  1
  H  H38  1  0.04490465  0.71334240  0.69574316  1
  H  H39  1  0.45015861  0.71910343  0.66140277  1
  H  H40  1  0.45497561  0.73451257  0.58139145  1
  H  H41  1  0.05432859  0.74298479  0.53857366  1
  H  H42  1  0.05702140  0.75774247  0.45857171  1
  H  H43  1  0.46035658  0.76386632  0.42110664  1
  H  H44  1  0.46127134  0.77971825  0.34103879  1
  H  H45  1  0.05860582  0.78971783  0.30137985  1
  H  H46  1  0.05637711  0.81320636  0.22142877  1
  H  H47  1  0.35223356  0.86335949  0.17393216  1
  H  H48  1  0.20655414  0.87481129  0.16329890  1
  H  H49  1  0.34022763  0.65528819  0.16970894  1
  H  H50  1  0.19273529  0.65893868  0.16240342  1
  H  H51  1  0.31008792  0.63102644  0.09750095  1
  H  H52  1  0.36400943  0.76948843  0.10343520  1
  H  H53  1  0.20783114  0.75555562  0.05644432  1
  H  H54  1  0.16758350  0.83623910  0.09586765  1
  H  H55  1  0.12257828  0.70195922  0.09195229  1
  H  H56  1  0.78055201  0.24689215  0.05640533  1
  H  H57  1  0.83816040  0.17808144  0.09558043  1
  H  H58  1  0.86945813  0.31490747  0.08853876  1
  H  H59  1  0.68092359  0.37153731  0.10075118  1
  H  H60  1  0.63725331  0.22978933  0.10657894  1
  H  H61  1  0.66995954  0.34255159  0.17348940  1
  H  H62  1  0.81538153  0.34709364  0.16229773  1
  H  H63  1  0.81883367  0.13404192  0.16309166  1
  H  H64  1  0.67236965  0.13135034  0.17302796  1
  H  H65  1  0.96278809  0.18962796  0.22368253  1
  H  H66  1  0.95688215  0.21207090  0.30368847  1
  H  H67  1  0.55206826  0.21965285  0.33821029  1
  H  H68  1  0.54687316  0.23545126  0.41831155  1
  H  H69  1  0.94668394  0.24326661  0.46216971  1
  H  H70  1  0.94197052  0.25844710  0.54219447  1
  H  H71  1  0.53775844  0.26562073  0.57843948  1
  H  H72  1  0.53575411  0.28063877  0.65851298  1
  H  H73  1  0.93802430  0.28904534  0.69868335  1
  H  H74  1  0.94095957  0.31240414  0.77904531  1
  H  H75  1  0.64594526  0.36282407  0.82626039  1
  H  H76  1  0.79161875  0.37889497  0.83663004  1
  H  H77  1  0.65807859  0.15505705  0.83122217  1
  H  H78  1  0.80541223  0.16383653  0.83901506  1
  H  H79  1  0.68518642  0.13723085  0.90370916  1
  H  H80  1  0.63297229  0.27454162  0.89664302  1
  H  H81  1  0.78574543  0.27588725  0.94395617  1
  H  H82  1  0.83435732  0.34237042  0.90281223  1
  H  H83  1  0.87129537  0.20928869  0.91136341  1
  H  H84  1  0.75297153  0.78332752  0.05646304  1
  H  H85  1  0.83394077  0.83521011  0.09482594  1
  H  H86  1  0.69745186  0.87203115  0.09028650  1
  H  H87  1  0.63045901  0.68406573  0.10005613  1
  H  H88  1  0.77133581  0.63902882  0.10683948  1
  H  H89  1  0.65826353  0.67012624  0.17289640  1
  H  H90  1  0.65632641  0.81447016  0.16198002  1
  H  H91  1  0.87130672  0.82038665  0.16401731  1
  H  H92  1  0.87118042  0.67500415  0.17406071  1
  H  H93  1  0.81324185  0.96222254  0.22402993  1
  H  H94  1  0.78830116  0.95574723  0.30389633  1
  H  H95  1  0.78013041  0.55425638  0.33866434  1
  H  H96  1  0.76381925  0.54865063  0.41872085  1
  H  H97  1  0.75621479  0.94479172  0.46201065  1
  H  H98  1  0.74148895  0.94016103  0.54201938  1
  H  H99  1  0.73411110  0.53944148  0.57877254  1
  H  H100  1  0.71935186  0.53730528  0.65882463  1
  H  H101  1  0.71159190  0.93584804  0.69854303  1
  H  H102  1  0.68855738  0.93792505  0.77885754  1
  H  H103  1  0.63630205  0.64509577  0.82622711  1
  H  H104  1  0.62432864  0.78932721  0.83651720  1
  H  H105  1  0.84620313  0.65702129  0.83108247  1
  H  H106  1  0.84210218  0.80344473  0.83825627  1
  H  H107  1  0.86716673  0.68634302  0.90383740  1
  H  H108  1  0.72696606  0.63478803  0.89676496  1
  H  H109  1  0.72571942  0.78696227  0.94255389  1
  H  H110  1  0.66691941  0.83667139  0.90012461  1
  H  H111  1  0.80195746  0.87070381  0.91113650  1
  Pb  Pb112  1  0.98393936  1.00287319  0.00169946  1
  Pb  Pb113  1  0.00599860  0.49426956  0.99946595  1
  Pb  Pb114  1  0.49861647  0.97962990  0.99899210  1
  Pb  Pb115  1  0.49067511  0.49146439  0.99420778  1
  C  C116  1  0.21866186  0.28783841  0.88848697  1
  C  C117  1  0.20843088  0.25917471  0.84310741  1
  C  C118  1  0.32367427  0.24818348  0.82180575  1
  C  C119  1  0.31336561  0.22122737  0.77698794  1
  C  C120  1  0.30639440  0.11684908  0.75867330  1
  C  C121  1  0.29326160  0.12096275  0.71547880  1
  C  C122  1  0.28996482  0.22947230  0.70026887  1
  C  C123  1  0.28046383  0.26554704  0.65819592  1
  C  C124  1  0.27733900  0.37343140  0.64227949  1
  C  C125  1  0.26902291  0.37597549  0.59907893  1
  C  C126  1  0.26546241  0.27008240  0.58101595  1
  C  C127  1  0.25707918  0.23933718  0.53831619  1
  C  C128  1  0.25359720  0.13293310  0.52059043  1
  C  C129  1  0.24539782  0.13434658  0.47744760  1
  C  C130  1  0.24244683  0.24190032  0.46110759  1
  C  C131  1  0.23471023  0.27544447  0.41882033  1
  C  C132  1  0.23164606  0.38257714  0.40219273  1
  C  C133  1  0.22350567  0.38305031  0.35897942  1
  C  C134  1  0.22020043  0.27639402  0.34160761  1
  C  C135  1  0.21115344  0.24313698  0.29906888  1
  C  C136  1  0.20729351  0.13562083  0.28248991  1
  C  C137  1  0.19545947  0.13416605  0.23922425  1
  C  C138  1  0.19002994  0.23961791  0.22216617  1
  C  C139  1  0.18139620  0.26881186  0.17757812  1
  C  C140  1  0.29704573  0.27189884  0.15611254  1
  C  C141  1  0.28912719  0.29135084  0.11014280  1
  C  C142  1  0.28641148  0.78390886  0.88838303  1
  C  C143  1  0.26028236  0.79280861  0.84280587  1
  C  C144  1  0.24814635  0.67775266  0.82145107  1
  C  C145  1  0.22069953  0.68673110  0.77668442  1
  C  C146  1  0.11544433  0.69396861  0.75846298  1
  C  C147  1  0.11963650  0.70689819  0.71531317  1
  C  C148  1  0.22906235  0.70971517  0.70007963  1
  C  C149  1  0.26558097  0.71907416  0.65806786  1
  C  C150  1  0.37442479  0.72247827  0.64220237  1
  C  C151  1  0.37701759  0.73085057  0.59903674  1
  C  C152  1  0.27017140  0.73421206  0.58098967  1
  C  C153  1  0.23915428  0.74265214  0.53833652  1
  C  C154  1  0.13179579  0.74619785  0.52063688  1
  C  C155  1  0.13323496  0.75415324  0.47752180  1
  C  C156  1  0.24174240  0.75692414  0.46121318  1
  C  C157  1  0.27567138  0.76467716  0.41897980  1
  C  C158  1  0.38375235  0.76763660  0.40238255  1
  C  C159  1  0.38424767  0.77614660  0.35921194  1
  C  C160  1  0.27667062  0.77996672  0.34186929  1
  C  C161  1  0.24320129  0.79001444  0.29941071  1
  C  C162  1  0.13484707  0.79468257  0.28282941  1
  C  C163  1  0.13369939  0.80748748  0.23964792  1
  C  C164  1  0.24019124  0.81285995  0.22270232  1
  C  C165  1  0.26983947  0.82093329  0.17818723  1
  C  C166  1  0.27193679  0.70591705  0.15657542  1
  C  C167  1  0.29232871  0.71355054  0.11071877  1
  C  C168  1  0.70681205  0.28988073  0.11265255  1
  C  C169  1  0.73745042  0.29646719  0.15795170  1
  C  C170  1  0.75064907  0.18088501  0.17815405  1
  C  C171  1  0.77902718  0.18897112  0.22294168  1
  C  C172  1  0.88464633  0.19479107  0.24105819  1
  C  C173  1  0.88150070  0.20691297  0.28430682  1
  C  C174  1  0.77243555  0.21061801  0.29972498  1
  C  C175  1  0.73645284  0.21997582  0.34178578  1
  C  C176  1  0.62762018  0.22333506  0.35755201  1
  C  C177  1  0.62484020  0.23180611  0.40070997  1
  C  C178  1  0.73157581  0.23511316  0.41891036  1
  C  C179  1  0.76185322  0.24311203  0.46168729  1
  C  C180  1  0.86875776  0.24653334  0.47981758  1
  C  C181  1  0.86621495  0.25473700  0.52294890  1
  C  C182  1  0.75731500  0.25777911  0.53885167  1
  C  C183  1  0.72248818  0.26601322  0.58099011  1
  C  C184  1  0.61419417  0.26918262  0.59732727  1
  C  C185  1  0.61307396  0.27727114  0.64055508  1
  C  C186  1  0.72044356  0.28059617  0.65818820  1
  C  C187  1  0.75369011  0.28989965  0.70077503  1
  C  C188  1  0.86219697  0.29417357  0.71738245  1
  C  C189  1  0.86377075  0.30687926  0.76059549  1
  C  C190  1  0.75741488  0.31249936  0.77755674  1
  C  C191  1  0.72820796  0.32236936  0.82208081  1
  C  C192  1  0.72589395  0.20869120  0.84430140  1
  C  C193  1  0.70416512  0.21908516  0.89008013  1
  C  C194  1  0.71350454  0.70861937  0.11260936  1
  C  C195  1  0.70632338  0.73797469  0.15787502  1
  C  C196  1  0.82272091  0.75218405  0.17883677  1
  C  C197  1  0.81431844  0.78008857  0.22353657  1
  C  C198  1  0.80779224  0.88466125  0.24147707  1
  C  C199  1  0.79419977  0.88119022  0.28461244  1
  C  C200  1  0.79012749  0.77296402  0.30009852  1
  C  C201  1  0.77981355  0.73700724  0.34210844  1
  C  C202  1  0.77624465  0.62902297  0.35793587  1
  C  C203  1  0.76748048  0.62600515  0.40105413  1
  C  C204  1  0.76404663  0.73174166  0.41914061  1
  C  C205  1  0.75601947  0.76159439  0.46183553  1
  C  C206  1  0.75284847  0.86759321  0.47979115  1
  C  C207  1  0.74495040  0.86505346  0.52289059  1
  C  C208  1  0.74191931  0.75711906  0.53894379  1
  C  C209  1  0.73396841  0.72255432  0.58111207  1
  C  C210  1  0.73075405  0.61517564  0.59756754  1
  C  C211  1  0.72279437  0.61396035  0.64075358  1
  C  C212  1  0.71958685  0.72037493  0.65824172  1
  C  C213  1  0.71037372  0.75309633  0.70074289  1
  C  C214  1  0.70635384  0.86050477  0.71727469  1
  C  C215  1  0.69379989  0.86163663  0.76044171  1
  C  C216  1  0.68806660  0.75597600  0.77743102  1
  C  C217  1  0.67920234  0.72671334  0.82194108  1
  C  C218  1  0.79484225  0.72473312  0.84395263  1
  C  C219  1  0.78507473  0.70490251  0.88985665  1
  S  S220  1  0.20000203  0.34164330  0.25999095  1
  S  S221  1  0.22751921  0.17519098  0.37982644  1
  S  S222  1  0.24984140  0.34142417  0.50036878  1
  S  S223  1  0.27298378  0.16712355  0.61862710  1
  S  S224  1  0.30281108  0.32559892  0.74049088  1
  S  S225  1  0.34286861  0.80157678  0.26048054  1
  S  S226  1  0.17456627  0.77243993  0.38002273  1
  S  S227  1  0.34210126  0.74960853  0.50044314  1
  S  S228  1  0.16631843  0.72638196  0.61853417  1
  S  S229  1  0.32595530  0.69658754  0.74019732  1
  S  S230  1  0.65441060  0.30107956  0.73975270  1
  S  S231  1  0.82302643  0.27363456  0.62023834  1
  S  S232  1  0.65793006  0.25006144  0.49921972  1
  S  S233  1  0.83564787  0.22766587  0.38145633  1
  S  S234  1  0.67453145  0.19886168  0.25967398  1
  S  S235  1  0.69897009  0.65421487  0.73971774  1
  S  S236  1  0.72668936  0.82218007  0.62020011  1
  S  S237  1  0.74917344  0.65856774  0.49949268  1
  S  S238  1  0.77171051  0.83514087  0.38163994  1
  S  S239  1  0.80323464  0.67622019  0.26026112  1
  I  I240  1  0.23981864  0.94264637  0.99756118  1
  I  I241  1  0.25354290  0.60103066  0.00100252  1
  I  I242  1  0.74079415  0.09145031  0.99904936  1
  I  I243  1  0.75081767  0.43327784  0.00090118  1
  I  I244  1  0.08663348  0.24927164  0.99841792  1
  I  I245  1  0.93683416  0.74863231  0.99897295  1
  I  I246  1  0.43536594  0.23766237  0.00263074  1
  I  I247  1  0.59492262  0.73892440  0.00011458  1
  I  I248  1  0.98910367  0.00386848  0.90165991  1
  I  I249  1  0.99728908  0.00387311  0.10503838  1
  I  I250  1  0.00143877  0.49629978  0.89752712  1
  I  I251  1  0.00390273  0.49803664  0.09947130  1
  I  I252  1  0.50395066  0.99218257  0.89769650  1
  I  I253  1  0.50371354  0.99134920  0.09916301  1
  I  I254  1  0.49185687  0.49755335  0.89508781  1
  I  I255  1  0.49713462  0.50237213  0.09308917  1
  N  N256  1  0.26356860  0.19236896  0.91338634  1
  N  N257  1  0.24946129  0.18861943  0.08711599  1
  N  N258  1  0.18658819  0.74289784  0.91243979  1
  N  N259  1  0.19112441  0.75607542  0.08774824  1
  N  N260  1  0.80512212  0.25441978  0.08698480  1
  N  N261  1  0.80505197  0.26497037  0.91308789  1
  N  N262  1  0.75358351  0.80607613  0.08731320  1
  N  N263  1  0.74223884  0.80612568  0.91191888  1
