# generated using pymatgen
data_H26PbC22S4(I2N)2
_symmetry_space_group_name_H-M   'P 1'
_cell_length_a   12.07870752
_cell_length_b   12.07954680
_cell_length_c   28.38069407
_cell_angle_alpha   91.20783549
_cell_angle_beta   91.09937836
_cell_angle_gamma   90.21790392
_symmetry_Int_Tables_number   1
_chemical_formula_structural   H26PbC22S4(I2N)2
_chemical_formula_sum   'H104 Pb4 C88 S16 I16 N8'
_cell_volume   4139.17522651
_cell_formula_units_Z   4
loop_
 _symmetry_equiv_pos_site_id
 _symmetry_equiv_pos_as_xyz
  1  'x, y, z'
loop_
 _atom_site_type_symbol
 _atom_site_label
 _atom_site_symmetry_multiplicity
 _atom_site_fract_x
 _atom_site_fract_y
 _atom_site_fract_z
 _atom_site_occupancy
  H  H0  1  0.31455133  0.35303682  0.88994652  1
  H  H1  1  0.23906815  0.33211701  0.93771109  1
  H  H2  1  0.18111475  0.39560998  0.89184725  1
  H  H3  1  0.24545664  0.15895398  0.89799535  1
  H  H4  1  0.10996424  0.21439305  0.89711854  1
  H  H5  1  0.14344163  0.28767432  0.81494342  1
  H  H6  1  0.13842379  0.14261286  0.81987492  1
  H  H7  1  0.35427736  0.27901925  0.81490008  1
  H  H8  1  0.34643013  0.13461558  0.82251499  1
  H  H9  1  0.29928762  0.00610901  0.74774259  1
  H  H10  1  0.28219170  0.02610640  0.65581899  1
  H  H11  1  0.27705278  0.42767264  0.62987867  1
  H  H12  1  0.26966272  0.44723665  0.53825568  1
  H  H13  1  0.26100543  0.06401035  0.47556737  1
  H  H14  1  0.24798486  0.08096156  0.38389767  1
  H  H15  1  0.24186153  0.48108393  0.35457531  1
  H  H16  1  0.21479946  0.49552636  0.26295641  1
  H  H17  1  0.14515640  0.35340819  0.19121621  1
  H  H18  1  0.15962438  0.21004483  0.20024990  1
  H  H19  1  0.36977653  0.23355920  0.19862132  1
  H  H20  1  0.35065847  0.37234941  0.18255125  1
  H  H21  1  0.38292964  0.23935558  0.11334449  1
  H  H22  1  0.25825983  0.16943904  0.12627132  1
  H  H23  1  0.28510752  0.40040100  0.09473245  1
  H  H24  1  0.16364740  0.35343539  0.11316018  1
  H  H25  1  0.22004511  0.29539558  0.06608441  1
  H  H26  1  0.34821956  0.68253770  0.88948138  1
  H  H27  1  0.32901472  0.76166174  0.93775247  1
  H  H28  1  0.39506394  0.81499015  0.89235631  1
  H  H29  1  0.15608919  0.75682755  0.89744261  1
  H  H30  1  0.21582285  0.89067150  0.89802967  1
  H  H31  1  0.28907000  0.85297327  0.81573760  1
  H  H32  1  0.14381963  0.85953185  0.82033716  1
  H  H33  1  0.27729124  0.64259400  0.81335484  1
  H  H34  1  0.13296416  0.65129257  0.82131879  1
  H  H35  1  0.00500327  0.70256822  0.74707167  1
  H  H36  1  0.02536649  0.72140723  0.65563672  1
  H  H37  1  0.42690796  0.72233557  0.62923947  1
  H  H38  1  0.44636751  0.73120924  0.53769366  1
  H  H39  1  0.06320695  0.73892568  0.47541579  1
  H  H40  1  0.08048428  0.75141291  0.38399317  1
  H  H41  1  0.48092089  0.75612804  0.35460316  1
  H  H42  1  0.49609596  0.78486052  0.26345851  1
  H  H43  1  0.35474712  0.85614712  0.19303569  1
  H  H44  1  0.21127904  0.84280721  0.20220668  1
  H  H45  1  0.23152247  0.63248973  0.19700465  1
  H  H46  1  0.37080768  0.65045641  0.18143093  1
  H  H47  1  0.23882073  0.61809335  0.11170620  1
  H  H48  1  0.16919714  0.74241569  0.12640420  1
  H  H49  1  0.40112035  0.71669184  0.09567663  1
  H  H50  1  0.35189244  0.83905936  0.11404217  1
  H  H51  1  0.29655630  0.77746308  0.06644086  1
  H  H52  1  0.64943569  0.17478773  0.11161514  1
  H  H53  1  0.67004951  0.24146169  0.06220270  1
  H  H54  1  0.60416559  0.30595861  0.10657729  1
  H  H55  1  0.84231885  0.24737877  0.10193181  1
  H  H56  1  0.78347327  0.38152174  0.10085941  1
  H  H57  1  0.71101133  0.35280867  0.18377671  1
  H  H58  1  0.85617149  0.35801957  0.17916704  1
  H  H59  1  0.72032368  0.14223145  0.18546919  1
  H  H60  1  0.86460236  0.14993089  0.17757528  1
  H  H61  1  0.99285625  0.20408476  0.25176421  1
  H  H62  1  0.97379891  0.22211012  0.34361560  1
  H  H63  1  0.57254266  0.22252904  0.37041107  1
  H  H64  1  0.55306962  0.23108529  0.46210515  1
  H  H65  1  0.93632857  0.23952315  0.52407017  1
  H  H66  1  0.92007519  0.25293729  0.61583538  1
  H  H67  1  0.52075622  0.25851061  0.64631600  1
  H  H68  1  0.50776461  0.28301597  0.73806681  1
  H  H69  1  0.64877940  0.35174656  0.80964742  1
  H  H70  1  0.79244256  0.33770130  0.80059506  1
  H  H71  1  0.76793919  0.12732069  0.80023113  1
  H  H72  1  0.62896702  0.14602543  0.81595919  1
  H  H73  1  0.76190768  0.10693078  0.88427033  1
  H  H74  1  0.82949666  0.23458430  0.87464154  1
  H  H75  1  0.59526936  0.20054327  0.90126517  1
  H  H76  1  0.64939286  0.32626012  0.89156686  1
  H  H77  1  0.69798168  0.24981127  0.93577294  1
  H  H78  1  0.82902885  0.65334559  0.11188613  1
  H  H79  1  0.75755086  0.67185768  0.06228588  1
  H  H80  1  0.69825669  0.60430440  0.10642839  1
  H  H81  1  0.75201286  0.84404727  0.10271519  1
  H  H82  1  0.61902861  0.78182628  0.10002770  1
  H  H83  1  0.65087195  0.70948662  0.18294717  1
  H  H84  1  0.64500872  0.85480146  0.17871322  1
  H  H85  1  0.86135986  0.72117121  0.18709063  1
  H  H86  1  0.85317216  0.86542299  0.17940296  1
  H  H87  1  0.79853546  0.99268363  0.25286638  1
  H  H88  1  0.77695444  0.97350132  0.34419511  1
  H  H89  1  0.77714377  0.57270679  0.37085962  1
  H  H90  1  0.76842868  0.55361021  0.46248048  1
  H  H91  1  0.76047583  0.93682498  0.52466867  1
  H  H92  1  0.74791679  0.91983536  0.61616160  1
  H  H93  1  0.74217962  0.51992827  0.64568680  1
  H  H94  1  0.71447907  0.50562398  0.73672612  1
  H  H95  1  0.64720231  0.64610373  0.80785497  1
  H  H96  1  0.65944974  0.78986499  0.79881060  1
  H  H97  1  0.86966129  0.77057910  0.80179268  1
  H  H98  1  0.85357522  0.63080562  0.81701943  1
  H  H99  1  0.89221999  0.76259618  0.88606191  1
  H  H100  1  0.76544457  0.83045698  0.87455421  1
  H  H101  1  0.79634126  0.59558543  0.90097219  1
  H  H102  1  0.67120269  0.65183146  0.89065793  1
  H  H103  1  0.75179915  0.69856625  0.93556957  1
  Pb  Pb104  1  0.99488360  0.00195532  0.00334410  1
  Pb  Pb105  1  0.99868228  0.50131317  0.00123493  1
  Pb  Pb106  1  0.49519586  0.00135943  0.00129895  1
  Pb  Pb107  1  0.49780886  0.50199702  0.99565666  1
  C  C108  1  0.19287075  0.22342249  0.88264360  1
  C  C109  1  0.18859732  0.21631528  0.82924699  1
  C  C110  1  0.30278774  0.20508182  0.80667414  1
  C  C111  1  0.29540776  0.18539091  0.75449082  1
  C  C112  1  0.29349501  0.08528596  0.73018449  1
  C  C113  1  0.28389520  0.09609921  0.68070839  1
  C  C114  1  0.27845546  0.20528658  0.66664961  1
  C  C115  1  0.27378237  0.24810605  0.61961696  1
  C  C116  1  0.27402330  0.35733624  0.60519551  1
  C  C117  1  0.27021876  0.36788338  0.55582524  1
  C  C118  1  0.26720974  0.26681923  0.53145272  1
  C  C119  1  0.26199165  0.24451311  0.48146337  1
  C  C120  1  0.25884582  0.14280937  0.45757325  1
  C  C121  1  0.25185633  0.15194973  0.40821657  1
  C  C122  1  0.24952845  0.26073813  0.39325451  1
  C  C123  1  0.24005511  0.30122755  0.34590654  1
  C  C124  1  0.23567566  0.40950010  0.33061053  1
  C  C125  1  0.22095868  0.41719743  0.28116546  1
  C  C126  1  0.21411095  0.31565885  0.25810205  1
  C  C127  1  0.20099461  0.29074277  0.20634668  1
  C  C128  1  0.31207341  0.28952652  0.18055007  1
  C  C129  1  0.30182585  0.24932933  0.12954303  1
  C  C130  1  0.22260163  0.80699024  0.88274516  1
  C  C131  1  0.21656289  0.80909752  0.82937320  1
  C  C132  1  0.20391860  0.69389025  0.80574242  1
  C  C133  1  0.18432190  0.69955554  0.75363188  1
  C  C134  1  0.08435177  0.70594245  0.72956445  1
  C  C135  1  0.09535751  0.71626617  0.68028481  1
  C  C136  1  0.20468142  0.71780793  0.66612729  1
  C  C137  1  0.24737695  0.72373466  0.61916925  1
  C  C138  1  0.35662002  0.72490675  0.60465567  1
  C  C139  1  0.36707527  0.72952894  0.55534211  1
  C  C140  1  0.26596889  0.73211095  0.53112311  1
  C  C141  1  0.24370782  0.73796018  0.48125972  1
  C  C142  1  0.14210932  0.74105915  0.45745580  1
  C  C143  1  0.15143472  0.74766663  0.40819413  1
  C  C144  1  0.26030772  0.74994291  0.39322855  1
  C  C145  1  0.30111815  0.75970812  0.34606056  1
  C  C146  1  0.40953422  0.76322870  0.33079075  1
  C  C147  1  0.41770080  0.77896813  0.28165294  1
  C  C148  1  0.31622254  0.78760634  0.25889057  1
  C  C149  1  0.29133839  0.80093115  0.20742968  1
  C  C150  1  0.28864955  0.68968806  0.17994751  1
  C  C151  1  0.24894261  0.69944323  0.12911136  1
  C  C152  1  0.77647030  0.29967180  0.11649973  1
  C  C153  1  0.78281151  0.30729786  0.16992239  1
  C  C154  1  0.79410579  0.19413213  0.19328603  1
  C  C155  1  0.81365853  0.20370878  0.24542048  1
  C  C156  1  0.91386866  0.20866879  0.26948686  1
  C  C157  1  0.90350197  0.21824270  0.31898459  1
  C  C158  1  0.79431655  0.22059626  0.33333033  1
  C  C159  1  0.75197598  0.22558093  0.38045704  1
  C  C160  1  0.64281316  0.22566072  0.39504332  1
  C  C161  1  0.63235902  0.23017378  0.44441559  1
  C  C162  1  0.73345672  0.23349231  0.46865342  1
  C  C163  1  0.75586309  0.23924081  0.51861248  1
  C  C164  1  0.85772447  0.24216391  0.54226784  1
  C  C165  1  0.84900635  0.24939755  0.59163208  1
  C  C166  1  0.74039395  0.25210687  0.60687057  1
  C  C167  1  0.70072256  0.26121746  0.65437649  1
  C  C168  1  0.59264125  0.26472933  0.67003497  1
  C  C169  1  0.58571632  0.27827821  0.71955409  1
  C  C170  1  0.68742693  0.28544488  0.74229311  1
  C  C171  1  0.71175191  0.29662607  0.79415633  1
  C  C172  1  0.71186303  0.18423014  0.81875209  1
  C  C173  1  0.75063342  0.18979271  0.86994830  1
  C  C174  1  0.70155497  0.77663730  0.11652567  1
  C  C175  1  0.69569468  0.78205882  0.16986513  1
  C  C176  1  0.80969130  0.79438103  0.19448848  1
  C  C177  1  0.80127569  0.81353869  0.24651519  1
  C  C178  1  0.79406764  0.91368139  0.27042581  1
  C  C179  1  0.78253850  0.90319861  0.31965255  1
  C  C180  1  0.78096309  0.79414687  0.33391153  1
  C  C181  1  0.77475258  0.75204275  0.38092267  1
  C  C182  1  0.77412100  0.64299112  0.39548958  1
  C  C183  1  0.76957666  0.63278804  0.44478332  1
  C  C184  1  0.76649987  0.73396755  0.46896518  1
  C  C185  1  0.76067351  0.75636001  0.51883135  1
  C  C186  1  0.75795830  0.85802297  0.54264940  1
  C  C187  1  0.75128659  0.84887256  0.59189374  1
  C  C188  1  0.74862081  0.74016643  0.60687583  1
  C  C189  1  0.73907659  0.69982430  0.65409230  1
  C  C190  1  0.73545800  0.59158637  0.66943095  1
  C  C191  1  0.72038146  0.58393403  0.71862071  1
  C  C192  1  0.71242920  0.68542776  0.74142394  1
  C  C193  1  0.70134381  0.70994237  0.79309252  1
  C  C194  1  0.81406480  0.71274551  0.81933053  1
  C  C195  1  0.80909232  0.75138183  0.87047578  1
  S  S196  1  0.22714314  0.20972918  0.29789140  1
  S  S197  1  0.25649322  0.35187773  0.44152376  1
  S  S198  1  0.26912627  0.15835063  0.57088507  1
  S  S199  1  0.28256955  0.29379887  0.71586694  1
  S  S200  1  0.20996723  0.77547455  0.29846048  1
  S  S201  1  0.35123167  0.74328217  0.44137122  1
  S  S202  1  0.15756521  0.72844106  0.57062224  1
  S  S203  1  0.29305574  0.70693578  0.71499913  1
  S  S204  1  0.79293938  0.27411525  0.70212825  1
  S  S205  1  0.64879626  0.24539130  0.55880224  1
  S  S206  1  0.84187188  0.23095928  0.42906887  1
  S  S207  1  0.70536255  0.21219911  0.28435733  1
  S  S208  1  0.72436005  0.79139862  0.70175162  1
  S  S209  1  0.75485403  0.64896219  0.55871657  1
  S  S210  1  0.76947590  0.84220569  0.42942329  1
  S  S211  1  0.79300372  0.70514378  0.28520770  1
  I  I212  1  0.24726206  0.91706828  0.00365784  1
  I  I213  1  0.25004295  0.57295615  0.00125139  1
  I  I214  1  0.74486451  0.08513129  0.00198000  1
  I  I215  1  0.74717340  0.43108858  0.99512562  1
  I  I216  1  0.08103730  0.25179350  0.00246840  1
  I  I217  1  0.91614036  0.74885938  0.00134189  1
  I  I218  1  0.42652576  0.25256280  0.99672464  1
  I  I219  1  0.57134901  0.75106286  0.99557032  1
  I  I220  1  0.98699479  0.99820493  0.88916449  1
  I  I221  1  0.01409552  0.00658802  0.11593304  1
  I  I222  1  0.99201026  0.48817293  0.88635562  1
  I  I223  1  0.00291778  0.51174326  0.11695292  1
  I  I224  1  0.50002420  0.99380059  0.88633076  1
  I  I225  1  0.49836605  0.00973924  0.11687924  1
  I  I226  1  0.49083553  0.49954023  0.87906160  1
  I  I227  1  0.50746535  0.50283313  0.11157895  1
  N  N228  1  0.23619471  0.33295566  0.90120021  1
  N  N229  1  0.23920691  0.32933418  0.09947462  1
  N  N230  1  0.33034958  0.76193288  0.90124038  1
  N  N231  1  0.32943361  0.76191042  0.09994680  1
  N  N232  1  0.66830244  0.25219577  0.09858332  1
  N  N233  1  0.66815510  0.24634736  0.90120172  1
  N  N234  1  0.75021489  0.66996481  0.09862387  1
  N  N235  1  0.75209106  0.66919606  0.90088835  1
