# generated using pymatgen
data_H12PbC10(I2N)2
_symmetry_space_group_name_H-M   'P 1'
_cell_length_a   12.13986778
_cell_length_b   12.13973642
_cell_length_c   12.28094806
_cell_angle_alpha   88.69820466
_cell_angle_beta   88.69823674
_cell_angle_gamma   90.21962232
_symmetry_Int_Tables_number   1
_chemical_formula_structural   H12PbC10(I2N)2
_chemical_formula_sum   'H48 Pb4 C40 I16 N8'
_cell_volume   1808.95094178
_cell_formula_units_Z   4
loop_
 _symmetry_equiv_pos_site_id
 _symmetry_equiv_pos_as_xyz
  1  'x, y, z'
loop_
 _atom_site_type_symbol
 _atom_site_label
 _atom_site_symmetry_multiplicity
 _atom_site_fract_x
 _atom_site_fract_y
 _atom_site_fract_z
 _atom_site_occupancy
  H  H0  1  0.25675081  0.27911099  0.81810176  1
  H  H1  1  0.19292748  0.16884623  0.76580903  1
  H  H2  1  0.33124325  0.17623207  0.76109121  1
  H  H3  1  0.25617163  0.44110300  0.72073221  1
  H  H4  1  0.24629536  0.54230326  0.54228266  1
  H  H5  1  0.23715608  0.44289623  0.37194424  1
  H  H6  1  0.30695334  0.33103245  0.23410569  1
  H  H7  1  0.16864921  0.32367012  0.23892578  1
  H  H8  1  0.24307457  0.22075675  0.18189472  1
  H  H9  1  0.24365911  0.05880112  0.27927910  1
  H  H10  1  0.25366763  0.95760936  0.45771905  1
  H  H11  1  0.26291560  0.05702760  0.62804509  1
  H  H12  1  0.27924966  0.75692716  0.81810921  1
  H  H13  1  0.17632314  0.83133582  0.76108019  1
  H  H14  1  0.16897806  0.69303120  0.76591002  1
  H  H15  1  0.44119311  0.75634034  0.72071894  1
  H  H16  1  0.54238189  0.74633244  0.54227696  1
  H  H17  1  0.44296176  0.73708605  0.37194947  1
  H  H18  1  0.32375622  0.66873868  0.23890368  1
  H  H19  1  0.33114722  0.80705726  0.23419312  1
  H  H20  1  0.22088029  0.74323908  0.18190111  1
  H  H21  1  0.05888921  0.74378917  0.27927918  1
  H  H22  1  0.95769021  0.75364760  0.45772841  1
  H  H23  1  0.05709852  0.76279985  0.62806574  1
  H  H24  1  0.72089900  0.24324516  0.18191101  1
  H  H25  1  0.83116436  0.30705781  0.23420384  1
  H  H26  1  0.82377043  0.16873843  0.23890848  1
  H  H27  1  0.55891151  0.24381123  0.27928165  1
  H  H28  1  0.45770323  0.25369131  0.45772488  1
  H  H29  1  0.55710555  0.26285132  0.62806758  1
  H  H30  1  0.66898004  0.19304722  0.76591202  1
  H  H31  1  0.67632421  0.33135045  0.76108672  1
  H  H32  1  0.77924509  0.25693746  0.81812334  1
  H  H33  1  0.94119785  0.25632970  0.72073950  1
  H  H34  1  0.04239129  0.24629473  0.54230065  1
  H  H35  1  0.94297433  0.23704340  0.37197416  1
  H  H36  1  0.74307044  0.72075524  0.18189031  1
  H  H37  1  0.66864647  0.82367924  0.23890362  1
  H  H38  1  0.80695108  0.83103177  0.23409349  1
  H  H39  1  0.74364220  0.55881235  0.27928521  1
  H  H40  1  0.75365452  0.45762716  0.45773009  1
  H  H41  1  0.76292102  0.55705260  0.62805223  1
  H  H42  1  0.83125390  0.67625484  0.76110216  1
  H  H43  1  0.69293778  0.66888473  0.76582104  1
  H  H44  1  0.75677184  0.77914555  0.81810343  1
  H  H45  1  0.75620077  0.94112969  0.72072161  1
  H  H46  1  0.74631356  0.04232303  0.54226909  1
  H  H47  1  0.73714750  0.94291081  0.37193422  1
  Pb  Pb48  1  0.99978576  0.00006376  0.99978536  1
  Pb  Pb49  1  0.00001229  0.50027537  0.00026032  1
  Pb  Pb50  1  0.49993550  0.00035040  0.00006907  1
  Pb  Pb51  1  0.49969719  0.50006594  0.99975177  1
  C  C52  1  0.25524153  0.28249470  0.64770842  1
  C  C53  1  0.25378847  0.39578365  0.64523300  1
  C  C54  1  0.24785848  0.45280529  0.54426235  1
  C  C55  1  0.24318219  0.39662456  0.44846138  1
  C  C56  1  0.24670149  0.27995800  0.44883728  1
  C  C57  1  0.24470243  0.21742470  0.35228068  1
  C  C58  1  0.24611840  0.10411390  0.35476453  1
  C  C59  1  0.25211105  0.04711108  0.45573952  1
  C  C60  1  0.25683809  0.10329123  0.55152419  1
  C  C61  1  0.25330211  0.21995975  0.55114806  1
  C  C62  1  0.28257151  0.75528599  0.64772106  1
  C  C63  1  0.39587848  0.75387734  0.64523412  1
  C  C64  1  0.45288157  0.74788718  0.54425736  1
  C  C65  1  0.39669965  0.74315837  0.44847383  1
  C  C66  1  0.28003146  0.74668486  0.44885554  1
  C  C67  1  0.21750623  0.74473862  0.35229490  1
  C  C68  1  0.10419975  0.74617675  0.35477030  1
  C  C69  1  0.04719127  0.75209801  0.45574893  1
  C  C70  1  0.10336872  0.75678386  0.55154592  1
  C  C71  1  0.22003753  0.75327930  0.55116947  1
  C  C72  1  0.71752799  0.24474506  0.35230502  1
  C  C73  1  0.60421570  0.24619810  0.35477420  1
  C  C74  1  0.54720800  0.25213190  0.45575488  1
  C  C75  1  0.60337824  0.25681665  0.55154498  1
  C  C76  1  0.72004980  0.25329685  0.55117962  1
  C  C77  1  0.78258562  0.25529608  0.64773336  1
  C  C78  1  0.89588300  0.25387145  0.64525159  1
  C  C79  1  0.95289028  0.24786568  0.54427919  1
  C  C80  1  0.89671322  0.24313742  0.44849059  1
  C  C81  1  0.78004448  0.24668656  0.44887030  1
  C  C82  1  0.74469437  0.71743953  0.35228007  1
  C  C83  1  0.74610639  0.60412936  0.35476965  1
  C  C84  1  0.75210171  0.54712796  0.45574585  1
  C  C85  1  0.75683933  0.60331280  0.55153009  1
  C  C86  1  0.75330644  0.71998281  0.55114772  1
  C  C87  1  0.75525413  0.78251428  0.64770749  1
  C  C88  1  0.75380930  0.89581174  0.64522815  1
  C  C89  1  0.74787225  0.95282475  0.54425132  1
  C  C90  1  0.74318259  0.89664218  0.44845561  1
  C  C91  1  0.74669936  0.77997608  0.44883253  1
  I  I92  1  0.24894834  0.08068960  0.03093009  1
  I  I93  1  0.25081869  0.41894031  0.96916028  1
  I  I94  1  0.75081601  0.91903245  0.96915966  1
  I  I95  1  0.74895894  0.58062178  0.03094192  1
  I  I96  1  0.91935590  0.25106410  0.96907115  1
  I  I97  1  0.08105823  0.74920278  0.03084549  1
  I  I98  1  0.58103019  0.24921600  0.03081973  1
  I  I99  1  0.41934782  0.75107299  0.96904300  1
  I  I100  1  0.05141492  0.99498350  0.74415070  1
  I  I101  1  0.94840745  0.00500248  0.25551267  1
  I  I102  1  0.99498942  0.55158809  0.74452250  1
  I  I103  1  0.00501915  0.44858406  0.25588473  1
  I  I104  1  0.49495371  0.05156501  0.74436789  1
  I  I105  1  0.50500776  0.94857203  0.25571329  1
  I  I106  1  0.55139205  0.49497095  0.74413997  1
  I  I107  1  0.44838013  0.50498905  0.25549478  1
  N  N108  1  0.25888852  0.22378611  0.75371376  1
  N  N109  1  0.24099170  0.27609236  0.24626327  1
  N  N110  1  0.22390694  0.75899841  0.75374343  1
  N  N111  1  0.27620393  0.74109719  0.24628969  1
  N  N112  1  0.77620631  0.24109970  0.24629193  1
  N  N113  1  0.72390163  0.25901368  0.75375095  1
  N  N114  1  0.74098823  0.77609566  0.24625425  1
  N  N115  1  0.75890343  0.72381877  0.75371841  1
