# generated using pymatgen
data_H11PbC6SI4N2F
_symmetry_space_group_name_H-M   'P 1'
_cell_length_a   12.58171688
_cell_length_b   12.65162463
_cell_length_c   11.82026762
_cell_angle_alpha   88.49500756
_cell_angle_beta   88.79495176
_cell_angle_gamma   89.35431947
_symmetry_Int_Tables_number   1
_chemical_formula_structural   H11PbC6SI4N2F
_chemical_formula_sum   'H44 Pb4 C24 S4 I16 N8 F4'
_cell_volume   1880.36710840
_cell_formula_units_Z   4
loop_
 _symmetry_equiv_pos_site_id
 _symmetry_equiv_pos_as_xyz
  1  'x, y, z'
loop_
 _atom_site_type_symbol
 _atom_site_label
 _atom_site_symmetry_multiplicity
 _atom_site_fract_x
 _atom_site_fract_y
 _atom_site_fract_z
 _atom_site_occupancy
  H  H0  1  0.26669046  0.19018659  0.86826550  1
  H  H1  1  0.34477244  0.16817010  0.75669869  1
  H  H2  1  0.32500006  0.29311908  0.79860427  1
  H  H3  1  0.15393773  0.15409464  0.71555616  1
  H  H4  1  0.13721327  0.28816812  0.75594977  1
  H  H5  1  0.21286312  0.44264868  0.61551241  1
  H  H6  1  0.31156493  0.12207938  0.30719045  1
  H  H7  1  0.38041038  0.23693349  0.26086986  1
  H  H8  1  0.14678761  0.21582508  0.23522404  1
  H  H9  1  0.23642146  0.17841939  0.13820033  1
  H  H10  1  0.22672598  0.30722541  0.17226953  1
  H  H11  1  0.20469521  0.73498089  0.86590335  1
  H  H12  1  0.17207005  0.66186618  0.75775529  1
  H  H13  1  0.30112495  0.67273549  0.78782109  1
  H  H14  1  0.15656104  0.84889176  0.70882010  1
  H  H15  1  0.29134352  0.86662622  0.74709245  1
  H  H16  1  0.44711601  0.79475766  0.60816847  1
  H  H17  1  0.12306270  0.68610959  0.31151206  1
  H  H18  1  0.23832591  0.61217399  0.27308777  1
  H  H19  1  0.21753972  0.84236150  0.22051927  1
  H  H20  1  0.17925947  0.74914055  0.13402791  1
  H  H21  1  0.30848075  0.75821553  0.16701956  1
  H  H22  1  0.79993941  0.23154476  0.13284400  1
  H  H23  1  0.82141182  0.15382830  0.24575307  1
  H  H24  1  0.69557821  0.17852229  0.20773754  1
  H  H25  1  0.84804700  0.34235024  0.28262184  1
  H  H26  1  0.71422271  0.36726880  0.24309027  1
  H  H27  1  0.55588953  0.30100222  0.38664752  1
  H  H28  1  0.87911966  0.19277906  0.69179499  1
  H  H29  1  0.76404954  0.12264919  0.73534782  1
  H  H30  1  0.78316397  0.35324813  0.77560723  1
  H  H31  1  0.82694366  0.25953042  0.86474839  1
  H  H32  1  0.69689829  0.26811119  0.83631524  1
  H  H33  1  0.75241091  0.80713824  0.13350326  1
  H  H34  1  0.82698838  0.83628941  0.24226805  1
  H  H35  1  0.81766254  0.70902205  0.20615261  1
  H  H36  1  0.63892217  0.84470701  0.29296052  1
  H  H37  1  0.62605501  0.71072631  0.25111245  1
  H  H38  1  0.69626249  0.55542443  0.38976754  1
  H  H39  1  0.81500497  0.87319927  0.68595433  1
  H  H40  1  0.88070132  0.75455881  0.72961130  1
  H  H41  1  0.64864849  0.79052266  0.76931095  1
  H  H42  1  0.74079226  0.82355159  0.86041732  1
  H  H43  1  0.72627526  0.69491693  0.82859696  1
  Pb  Pb44  1  0.99360438  0.00415604  0.00328352  1
  Pb  Pb45  1  0.99286795  0.51027882  0.00140772  1
  Pb  Pb46  1  0.49925167  0.00517659  0.00845175  1
  Pb  Pb47  1  0.49125847  0.50212348  0.99211248  1
  C  C48  1  0.19172456  0.23205458  0.71461144  1
  C  C49  1  0.22126208  0.26938634  0.59770456  1
  C  C50  1  0.22918239  0.37429420  0.56395605  1
  C  C51  1  0.27366054  0.25614872  0.40513747  1
  C  C52  1  0.30421359  0.20816673  0.29602174  1
  C  C53  1  0.24612865  0.20343771  0.50490217  1
  C  C54  1  0.23604227  0.81209590  0.70871301  1
  C  C55  1  0.27324509  0.78401511  0.59256275  1
  C  C56  1  0.37846626  0.77629583  0.55848623  1
  C  C57  1  0.25906101  0.72592123  0.40479592  1
  C  C58  1  0.20977304  0.69022140  0.29980914  1
  C  C59  1  0.20657943  0.75620870  0.50256458  1
  C  C60  1  0.76759018  0.30971743  0.28481091  1
  C  C61  1  0.72986066  0.28494174  0.40297094  1
  C  C62  1  0.62446286  0.28187547  0.43786363  1
  C  C63  1  0.74349554  0.23573098  0.59681204  1
  C  C64  1  0.79273953  0.20002416  0.70416825  1
  C  C65  1  0.79616625  0.25916340  0.49587000  1
  C  C66  1  0.67860752  0.76688821  0.29093672  1
  C  C67  1  0.70974108  0.72816968  0.40587551  1
  C  C68  1  0.71616430  0.62303768  0.43965977  1
  C  C69  1  0.77002359  0.73976928  0.59337731  1
  C  C70  1  0.80507318  0.78768979  0.69911405  1
  C  C71  1  0.73998770  0.79319021  0.49587712  1
  S  S72  1  0.26863022  0.39100766  0.42630057  1
  S  S73  1  0.39483687  0.73277443  0.42411186  1
  S  S74  1  0.60799795  0.24613747  0.57672182  1
  S  S75  1  0.76037497  0.60517938  0.57392946  1
  I  I76  1  0.24591721  0.02446802  0.01671159  1
  I  I77  1  0.23972999  0.47284943  0.05210707  1
  I  I78  1  0.74774569  0.97897794  0.97995797  1
  I  I79  1  0.74341889  0.52795784  0.94039208  1
  I  I80  1  0.97895690  0.25659354  1.00229126  1
  I  I81  1  0.02863115  0.75782723  0.99812116  1
  I  I82  1  0.53989908  0.25542232  0.97422997  1
  I  I83  1  0.47304154  0.75601240  0.03365488  1
  I  I84  1  0.00408283  0.00221925  0.73982029  1
  I  I85  1  0.96230635  0.00096325  0.28011110  1
  I  I86  1  0.02546070  0.53178659  0.73098185  1
  I  I87  1  0.94762617  0.54460353  0.26171418  1
  I  I88  1  0.48912189  0.00294603  0.73675410  1
  I  I89  1  0.54302772  0.04125728  0.26796593  1
  I  I90  1  0.43522416  0.51889914  0.73017467  1
  I  I91  1  0.50861163  0.49131052  0.25511850  1
  N  N92  1  0.28833767  0.22117770  0.78901582  1
  N  N93  1  0.22298226  0.22963007  0.20538659  1
  N  N94  1  0.22931141  0.71485377  0.78516628  1
  N  N95  1  0.23085935  0.76476064  0.19968054  1
  N  N96  1  0.77045890  0.21249362  0.21316833  1
  N  N97  1  0.77319639  0.27504793  0.80004591  1
  N  N98  1  0.77502448  0.77999876  0.21290180  1
  N  N99  1  0.72464706  0.77241111  0.79497573  1
  F  F100  1  0.24309486  0.09640951  0.51463671  1
  F  F101  1  0.09906175  0.75893127  0.51298866  1
  F  F102  1  0.90383390  0.25705483  0.48500162  1
  F  F103  1  0.73935558  0.90024384  0.48577339  1
