# generated using pymatgen
data_H16PbC11S(I2N)2
_symmetry_space_group_name_H-M   'P 1'
_cell_length_a   12.87760047
_cell_length_b   12.49534123
_cell_length_c   14.90005073
_cell_angle_alpha   89.48441069
_cell_angle_beta   86.93614837
_cell_angle_gamma   90.63396711
_symmetry_Int_Tables_number   1
_chemical_formula_structural   H16PbC11S(I2N)2
_chemical_formula_sum   'H64 Pb4 C44 S4 I16 N8'
_cell_volume   2393.88326591
_cell_formula_units_Z   4
loop_
 _symmetry_equiv_pos_site_id
 _symmetry_equiv_pos_as_xyz
  1  'x, y, z'
loop_
 _atom_site_type_symbol
 _atom_site_label
 _atom_site_symmetry_multiplicity
 _atom_site_fract_x
 _atom_site_fract_y
 _atom_site_fract_z
 _atom_site_occupancy
  H  H0  1  0.22078093  0.11731416  0.22983697  1
  H  H1  1  0.09549542  0.11298245  0.28409533  1
  H  H2  1  0.19424650  0.02680179  0.31928714  1
  H  H3  1  0.23878357  0.06813476  0.46371705  1
  H  H4  1  0.28763274  0.12840652  0.63769573  1
  H  H5  1  0.38990213  0.35921674  0.75722430  1
  H  H6  1  0.34332688  0.22567056  0.77465139  1
  H  H7  1  0.19669003  0.41065733  0.78916346  1
  H  H8  1  0.27302412  0.37512995  0.87207615  1
  H  H9  1  0.18470464  0.29023697  0.83748449  1
  H  H10  1  0.23073916  0.46044249  0.39448786  1
  H  H11  1  0.12657128  0.29045127  0.22161940  1
  H  H12  1  0.16249955  0.42183509  0.25140623  1
  H  H13  1  0.26695236  0.36346003  0.12531488  1
  H  H14  1  0.31113943  0.25565329  0.18079189  1
  H  H15  1  0.34346142  0.37895307  0.21142600  1
  H  H16  1  0.12596168  0.74352633  0.22896504  1
  H  H17  1  0.12263631  0.87907510  0.25991117  1
  H  H18  1  0.03608340  0.78733257  0.31451469  1
  H  H19  1  0.07047731  0.75226918  0.46242742  1
  H  H20  1  0.12011370  0.72110403  0.64126261  1
  H  H21  1  0.32702336  0.61947762  0.76568011  1
  H  H22  1  0.20357769  0.67922113  0.78282341  1
  H  H23  1  0.38612922  0.82639474  0.78346743  1
  H  H24  1  0.37257611  0.73397662  0.86533101  1
  H  H25  1  0.27942976  0.82217103  0.85070334  1
  H  H26  1  0.45431357  0.77694667  0.39266252  1
  H  H27  1  0.29896138  0.87579507  0.21539750  1
  H  H28  1  0.42443201  0.84418814  0.24897956  1
  H  H29  1  0.38897442  0.74144995  0.12482205  1
  H  H30  1  0.27480628  0.69525612  0.16651942  1
  H  H31  1  0.38528092  0.65510493  0.21124447  1
  H  H32  1  0.87345895  0.24009432  0.76625074  1
  H  H33  1  0.87591881  0.37740876  0.73580488  1
  H  H34  1  0.96300222  0.28801368  0.68174464  1
  H  H35  1  0.92680503  0.24946874  0.53364572  1
  H  H36  1  0.87317961  0.20384245  0.35732540  1
  H  H37  1  0.65233171  0.09998772  0.23682811  1
  H  H38  1  0.78445018  0.14238657  0.22209709  1
  H  H39  1  0.60132675  0.28317494  0.20135290  1
  H  H40  1  0.67284257  0.22183313  0.11912523  1
  H  H41  1  0.72854198  0.31684412  0.18193605  1
  H  H42  1  0.54360353  0.27089544  0.60587682  1
  H  H43  1  0.70405263  0.37172944  0.78020217  1
  H  H44  1  0.57714304  0.34185237  0.74781550  1
  H  H45  1  0.62142910  0.24104621  0.87618986  1
  H  H46  1  0.72175586  0.18370874  0.82349311  1
  H  H47  1  0.60041808  0.15677250  0.79289761  1
  H  H48  1  0.75466341  0.88680556  0.76889749  1
  H  H49  1  0.62253892  0.88086166  0.73990047  1
  H  H50  1  0.70995036  0.97469529  0.68719050  1
  H  H51  1  0.74701615  0.93577539  0.53578505  1
  H  H52  1  0.79636048  0.87724038  0.35625686  1
  H  H53  1  0.90371645  0.65095185  0.22845863  1
  H  H54  1  0.85648257  0.78400163  0.21619826  1
  H  H55  1  0.73415901  0.58108233  0.19982113  1
  H  H56  1  0.78607173  0.66081709  0.11633549  1
  H  H57  1  0.68805105  0.70468678  0.18387904  1
  H  H58  1  0.74460158  0.54257673  0.60375308  1
  H  H59  1  0.64618435  0.70458290  0.78725661  1
  H  H60  1  0.68678399  0.57696453  0.75190290  1
  H  H61  1  0.78319239  0.63359556  0.87153778  1
  H  H62  1  0.82449613  0.74742492  0.82160473  1
  H  H63  1  0.86673157  0.62993520  0.78308548  1
  Pb  Pb64  1  0.00598886  0.97734379  0.99354731  1
  Pb  Pb65  1  -0.00144794  0.48010281  0.00533024  1
  Pb  Pb66  1  0.48121999  0.01730811  0.00474740  1
  Pb  Pb67  1  0.51161758  0.50218183  0.02285033  1
  C  C68  1  0.17898915  0.10816114  0.29570919  1
  C  C69  1  0.21108068  0.18821330  0.36368292  1
  C  C70  1  0.23678588  0.15370080  0.44861432  1
  C  C71  1  0.25807726  0.22743522  0.51606544  1
  C  C72  1  0.28041898  0.20762349  0.60768092  1
  C  C73  1  0.29320459  0.29964671  0.65526391  1
  C  C74  1  0.32283436  0.30538653  0.75012451  1
  C  C75  1  0.25508658  0.33875764  0.49587408  1
  C  C76  1  0.23240435  0.37495398  0.41004344  1
  C  C77  1  0.21064404  0.30001806  0.34444344  1
  C  C78  1  0.18740351  0.33822142  0.25173146  1
  C  C79  1  0.11635843  0.79701633  0.28712179  1
  C  C80  1  0.19172554  0.77744818  0.35901633  1
  C  C81  1  0.15423895  0.75671218  0.44684492  1
  C  C82  1  0.22249147  0.74436262  0.51661269  1
  C  C83  1  0.19846456  0.72882508  0.61050420  1
  C  C84  1  0.28500643  0.72238574  0.65948947  1
  C  C85  1  0.28354853  0.69358336  0.75631105  1
  C  C86  1  0.33158150  0.75010477  0.49626001  1
  C  C87  1  0.37069238  0.77059879  0.40839870  1
  C  C88  1  0.30126521  0.78507222  0.34047468  1
  C  C89  1  0.34434272  0.81397804  0.24775381  1
  C  C90  1  0.88262865  0.29601487  0.70871527  1
  C  C91  1  0.80705036  0.27594786  0.63702986  1
  C  C92  1  0.84322419  0.25356872  0.54962256  1
  C  C93  1  0.77371874  0.23640665  0.48135208  1
  C  C94  1  0.79548010  0.21242622  0.38875975  1
  C  C95  1  0.70758879  0.19947080  0.34194891  1
  C  C96  1  0.70637872  0.16693594  0.24631133  1
  C  C97  1  0.66485103  0.24201143  0.50249878  1
  C  C98  1  0.62708660  0.26550261  0.58965537  1
  C  C99  1  0.69769373  0.28229575  0.65624852  1
  C  C100  1  0.65627457  0.31089993  0.74863460  1
  C  C101  1  0.70302224  0.89219407  0.71260055  1
  C  C102  1  0.72865445  0.81431099  0.63883461  1
  C  C103  1  0.74726146  0.85009869  0.55077407  1
  C  C104  1  0.76608609  0.77721845  0.48054475  1
  C  C105  1  0.78819848  0.79777743  0.38689940  1
  C  C106  1  0.80349052  0.70611641  0.33833358  1
  C  C107  1  0.83642191  0.70290847  0.24132130  1
  C  C108  1  0.76479311  0.66564510  0.50042074  1
  C  C109  1  0.74650404  0.62829387  0.58858354  1
  C  C110  1  0.73002936  0.70237150  0.65725790  1
  C  C111  1  0.70932526  0.66165977  0.75137999  1
  S  S112  1  0.28102794  0.41492708  0.58934612  1
  S  S113  1  0.40067150  0.73253061  0.59243210  1
  S  S114  1  0.59353306  0.21587304  0.40927223  1
  S  S115  1  0.79132174  0.59018009  0.40478326  1
  I  I116  1  0.23853776  0.90254385  0.01480003  1
  I  I117  1  0.23783212  0.54594910  0.03237351  1
  I  I118  1  0.71689948  0.07528986  0.99943423  1
  I  I119  1  0.74222342  0.44295310  0.96951620  1
  I  I120  1  0.06066101  0.23901265  0.97593728  1
  I  I121  1  0.92335427  0.73235789  0.00533080  1
  I  I122  1  0.42800052  0.26678443  0.98007402  1
  I  I123  1  0.55850360  0.76020185  0.02271465  1
  I  I124  1  0.97754799  0.97097446  0.78704864  1
  I  I125  1  0.93190280  0.99604482  0.19885981  1
  I  I126  1  0.03699487  0.53140542  0.78855252  1
  I  I127  1  0.90760248  0.42001472  0.20473695  1
  I  I128  1  0.45100036  0.02614097  0.78287294  1
  I  I129  1  0.44460139  0.08699591  0.20672335  1
  I  I130  1  0.48159620  0.53155947  0.82224888  1
  I  I131  1  0.50345932  0.49557541  0.24830925  1
  N  N132  1  0.23942346  0.34784140  0.81479894  1
  N  N133  1  0.28258068  0.33274376  0.18816468  1
  N  N134  1  0.33323058  0.77385084  0.81649112  1
  N  N135  1  0.34728569  0.72059252  0.18453178  1
  N  N136  1  0.67428376  0.25426858  0.18348861  1
  N  N137  1  0.65066420  0.21751361  0.81331087  1
  N  N138  1  0.75430938  0.65918767  0.18264357  1
  N  N139  1  0.80115060  0.66980287  0.80954026  1
