# generated using pymatgen
data_H11PbC5I4N3
_symmetry_space_group_name_H-M   'P 1'
_cell_length_a   12.62135013
_cell_length_b   12.53496029
_cell_length_c   10.70528812
_cell_angle_alpha   87.11573373
_cell_angle_beta   86.32397617
_cell_angle_gamma   89.84966149
_symmetry_Int_Tables_number   1
_chemical_formula_structural   H11PbC5I4N3
_chemical_formula_sum   'H44 Pb4 C20 I16 N12'
_cell_volume   1688.03747897
_cell_formula_units_Z   4
loop_
 _symmetry_equiv_pos_site_id
 _symmetry_equiv_pos_as_xyz
  1  'x, y, z'
loop_
 _atom_site_type_symbol
 _atom_site_label
 _atom_site_symmetry_multiplicity
 _atom_site_fract_x
 _atom_site_fract_y
 _atom_site_fract_z
 _atom_site_occupancy
  H  H0  1  0.25678229  0.40769653  0.77336689  1
  H  H1  1  0.30682822  0.28863827  0.81318572  1
  H  H2  1  0.17730350  0.31362585  0.84594285  1
  H  H3  1  0.14238818  0.33624346  0.62883037  1
  H  H4  1  0.18248766  0.20408043  0.67446757  1
  H  H5  1  0.33392736  0.37731108  0.54684239  1
  H  H6  1  0.36866195  0.24378671  0.58829011  1
  H  H7  1  0.26392434  0.08155317  0.44044894  1
  H  H8  1  0.19521655  0.11146624  0.22266283  1
  H  H9  1  0.18670423  0.30980361  0.15369534  1
  H  H10  1  0.25026860  0.41096865  0.33590968  1
  H  H11  1  0.40512568  0.74738907  0.77615561  1
  H  H12  1  0.28635550  0.70040233  0.82725399  1
  H  H13  1  0.31435484  0.82984016  0.84151802  1
  H  H14  1  0.33278003  0.86458660  0.61864809  1
  H  H15  1  0.20232140  0.82276973  0.67296829  1
  H  H16  1  0.37566107  0.67133250  0.56451525  1
  H  H17  1  0.24370366  0.63492615  0.61365519  1
  H  H18  1  0.08126108  0.72766190  0.45005230  1
  H  H19  1  0.11099069  0.78430052  0.21700744  1
  H  H20  1  0.30844673  0.80238518  0.14838415  1
  H  H21  1  0.40871933  0.75697091  0.34165344  1
  H  H22  1  0.59602354  0.22529879  0.22614490  1
  H  H23  1  0.71650994  0.18387225  0.18143627  1
  H  H24  1  0.68305542  0.31119456  0.14869475  1
  H  H25  1  0.66419524  0.35125891  0.36495353  1
  H  H26  1  0.79597842  0.31159014  0.31797420  1
  H  H27  1  0.62493303  0.16028651  0.44963676  1
  H  H28  1  0.75720656  0.12458570  0.40487691  1
  H  H29  1  0.91896923  0.22922165  0.55400688  1
  H  H30  1  0.88719381  0.28530007  0.78011668  1
  H  H31  1  0.68907189  0.29557454  0.84751642  1
  H  H32  1  0.59121885  0.23569538  0.66311217  1
  H  H33  1  0.76116591  0.59452703  0.22730599  1
  H  H34  1  0.80816924  0.71432431  0.17930553  1
  H  H35  1  0.67993656  0.68501922  0.16278107  1
  H  H36  1  0.64242923  0.66653679  0.38724310  1
  H  H37  1  0.68301154  0.79828975  0.33328246  1
  H  H38  1  0.83522494  0.62618681  0.43692196  1
  H  H39  1  0.86921686  0.75949920  0.38914365  1
  H  H40  1  0.77611580  0.92200139  0.55868114  1
  H  H41  1  0.71945902  0.89116706  0.79062256  1
  H  H42  1  0.70438457  0.69163167  0.85674787  1
  H  H43  1  0.75172170  0.59197576  0.66041251  1
  Pb  Pb44  1  0.98990298  0.00569409  0.98617924  1
  Pb  Pb45  1  0.99253163  0.51164825  0.99519540  1
  Pb  Pb46  1  0.49280070  0.01123770  -0.00061874  1
  Pb  Pb47  1  0.48628679  0.50651986  0.01072549  1
  C  C48  1  0.20999174  0.28694985  0.65655525  1
  C  C49  1  0.30312645  0.29499160  0.55775980  1
  C  C50  1  0.26984562  0.25975393  0.43514941  1
  C  C51  1  0.25327243  0.15935457  0.39464594  1
  C  C52  1  0.21284829  0.27585956  0.24148001  1
  C  C53  1  0.28484550  0.79602528  0.65685599  1
  C  C54  1  0.29353699  0.70123761  0.57208868  1
  C  C55  1  0.25818060  0.73037919  0.44497773  1
  C  C56  1  0.15840705  0.74034761  0.40159996  1
  C  C57  1  0.27439579  0.77936946  0.24104755  1
  C  C58  1  0.71401054  0.28314901  0.33760211  1
  C  C59  1  0.70678204  0.19102424  0.43696478  1
  C  C60  1  0.74188098  0.22461571  0.55933814  1
  C  C61  1  0.84128580  0.24010235  0.60039801  1
  C  C62  1  0.72407674  0.27490202  0.75707915  1
  C  C63  1  0.71000685  0.71548818  0.34841178  1
  C  C64  1  0.80431895  0.70848832  0.43168242  1
  C  C65  1  0.77507344  0.74377887  0.55988688  1
  C  C66  1  0.76391373  0.84400133  0.60520555  1
  C  C67  1  0.72724926  0.72652717  0.76448156  1
  I  I68  1  0.24369005  0.97701293  0.98424721  1
  I  I69  1  0.24073661  0.55420522  1.00371787  1
  I  I70  1  0.74179102  0.04418972  0.98071078  1
  I  I71  1  0.73957899  0.46967837  0.00271244  1
  I  I72  1  0.01877056  0.26033077  0.97324653  1
  I  I73  1  0.96718457  0.75748726  0.04368744  1
  I  I74  1  0.45093377  0.25918966  0.97847647  1
  I  I75  1  0.53069443  0.75605841  0.03122044  1
  I  I76  1  0.01985443  0.00008171  0.69321212  1
  I  I77  1  0.97383885  0.00996846  0.29218869  1
  I  I78  1  0.01657797  0.53103025  0.69318851  1
  I  I79  1  0.97514754  0.47477501  0.29284054  1
  I  I80  1  0.50001159  0.01477755  0.69509959  1
  I  I81  1  0.49770375  0.00723874  0.29581534  1
  I  I82  1  0.50303258  0.51899644  0.71063503  1
  I  I83  1  0.48389389  0.49313987  0.31238001  1
  N  N84  1  0.24072706  0.32681683  0.77847309  1
  N  N85  1  0.21860385  0.17201556  0.27533385  1
  N  N86  1  0.24330736  0.32993813  0.33765742  1
  N  N87  1  0.32535324  0.76631468  0.78240890  1
  N  N88  1  0.17122332  0.77083160  0.27609685  1
  N  N89  1  0.32805153  0.75570778  0.34247495  1
  N  N90  1  0.67489757  0.24847331  0.21661782  1
  N  N91  1  0.82755384  0.27156432  0.72199002  1
  N  N92  1  0.67123889  0.24814853  0.65901996  1
  N  N93  1  0.74140621  0.67469171  0.22279054  1
  N  N94  1  0.73429376  0.83056385  0.73112111  1
  N  N95  1  0.75135833  0.67312037  0.66157265  1
