# generated using pymatgen
data_H15PbC12SI4N2F
_symmetry_space_group_name_H-M   'P 1'
_cell_length_a   12.39377993
_cell_length_b   12.48459091
_cell_length_c   16.60864618
_cell_angle_alpha   89.42127679
_cell_angle_beta   87.88522173
_cell_angle_gamma   89.14042372
_symmetry_Int_Tables_number   1
_chemical_formula_structural   H15PbC12SI4N2F
_chemical_formula_sum   'H60 Pb4 C48 S4 I16 N8 F4'
_cell_volume   2567.72042332
_cell_formula_units_Z   4
loop_
 _symmetry_equiv_pos_site_id
 _symmetry_equiv_pos_as_xyz
  1  'x, y, z'
loop_
 _atom_site_type_symbol
 _atom_site_label
 _atom_site_symmetry_multiplicity
 _atom_site_fract_x
 _atom_site_fract_y
 _atom_site_fract_z
 _atom_site_occupancy
  H  H0  1  0.26396452  0.24679646  0.89691201  1
  H  H1  1  0.31824578  0.17222757  0.82196902  1
  H  H2  1  0.34541438  0.30386147  0.82707744  1
  H  H3  1  0.12363779  0.22232605  0.80726675  1
  H  H4  1  0.16500941  0.35876189  0.80360496  1
  H  H5  1  0.26306037  0.43052274  0.67993574  1
  H  H6  1  0.30616691  0.40947436  0.53416188  1
  H  H7  1  0.22563343  0.37322591  0.38591480  1
  H  H8  1  0.37009452  0.31979526  0.19458185  1
  H  H9  1  0.25550996  0.38976977  0.23354492  1
  H  H10  1  0.14726994  0.23196701  0.19174994  1
  H  H11  1  0.25738873  0.18132237  0.14456508  1
  H  H12  1  0.21217309  0.30181518  0.11699607  1
  H  H13  1  0.20193989  0.08135251  0.54933029  1
  H  H14  1  0.16185302  0.10202484  0.69507403  1
  H  H15  1  0.25436454  0.72302937  0.89354249  1
  H  H16  1  0.17397296  0.67836373  0.82176670  1
  H  H17  1  0.30429997  0.64107589  0.82215540  1
  H  H18  1  0.23195739  0.86853169  0.80411070  1
  H  H19  1  0.36705687  0.81940390  0.79744901  1
  H  H20  1  0.43669435  0.72783315  0.67356475  1
  H  H21  1  0.41433235  0.69036321  0.52881607  1
  H  H22  1  0.36876583  0.78250610  0.37766370  1
  H  H23  1  0.32553327  0.62621144  0.19597273  1
  H  H24  1  0.38576827  0.74570476  0.22578909  1
  H  H25  1  0.22023871  0.84219199  0.18159389  1
  H  H26  1  0.17202098  0.72816486  0.14771636  1
  H  H27  1  0.28817066  0.77335609  0.10869968  1
  H  H28  1  0.08364629  0.80197471  0.55030082  1
  H  H29  1  0.10654767  0.83931746  0.69489409  1
  H  H30  1  0.75873357  0.22398578  0.10548746  1
  H  H31  1  0.83114841  0.17317741  0.18063914  1
  H  H32  1  0.70050341  0.14249631  0.17415266  1
  H  H33  1  0.77338514  0.36760694  0.19349578  1
  H  H34  1  0.63873281  0.32074784  0.19982147  1
  H  H35  1  0.57006601  0.22730779  0.32562777  1
  H  H36  1  0.59218145  0.19150357  0.47094626  1
  H  H37  1  0.62342872  0.26789896  0.61960758  1
  H  H38  1  0.67838623  0.12194438  0.80166727  1
  H  H39  1  0.61107973  0.24143250  0.77289848  1
  H  H40  1  0.77016042  0.33853794  0.82163039  1
  H  H41  1  0.82071991  0.22363574  0.85698885  1
  H  H42  1  0.70053663  0.26681299  0.89245801  1
  H  H43  1  0.91844529  0.30712734  0.44890455  1
  H  H44  1  0.89622494  0.34096576  0.30364996  1
  H  H45  1  0.77612068  0.74485996  0.10586530  1
  H  H46  1  0.81754148  0.82711064  0.17801539  1
  H  H47  1  0.85675555  0.69648357  0.17546284  1
  H  H48  1  0.62853425  0.77065215  0.19916697  1
  H  H49  1  0.67683967  0.63545561  0.20065445  1
  H  H50  1  0.76708691  0.56275742  0.32151456  1
  H  H51  1  0.80821531  0.58354840  0.46537372  1
  H  H52  1  0.71835626  0.62813906  0.61998269  1
  H  H53  1  0.86910549  0.67599642  0.80182083  1
  H  H54  1  0.74927646  0.61488703  0.77198565  1
  H  H55  1  0.65163195  0.78237187  0.81442415  1
  H  H56  1  0.76498906  0.83007967  0.85017828  1
  H  H57  1  0.71662313  0.71562360  0.88832950  1
  H  H58  1  0.70134832  0.91373897  0.45471316  1
  H  H59  1  0.66223695  0.89324907  0.31082176  1
  Pb  Pb60  1  0.00923021  1.00241707  0.01169438  1
  Pb  Pb61  1  0.99563357  0.50371082  0.99045352  1
  Pb  Pb62  1  0.51047100  0.99730672  0.98880581  1
  Pb  Pb63  1  0.49717606  0.49870835  0.99605840  1
  C  C64  1  0.18826991  0.27655673  0.78700038  1
  C  C65  1  0.21233761  0.26672028  0.69798128  1
  C  C66  1  0.25075572  0.35349072  0.65145904  1
  C  C67  1  0.27431976  0.34176435  0.56917318  1
  C  C68  1  0.25953659  0.24288240  0.53160823  1
  C  C69  1  0.28773309  0.22551739  0.44579996  1
  C  C70  1  0.26577306  0.29534800  0.37923946  1
  C  C71  1  0.29865490  0.25526477  0.30533172  1
  C  C72  1  0.29099827  0.30937340  0.22568360  1
  C  C73  1  0.33887515  0.13397512  0.41713540  1
  C  C74  1  0.21773098  0.15734279  0.57805621  1
  C  C75  1  0.19476797  0.16911996  0.65995611  1
  C  C76  1  0.28381475  0.80169240  0.78287194  1
  C  C77  1  0.27233020  0.78335539  0.69444074  1
  C  C78  1  0.35912966  0.74391344  0.64649021  1
  C  C79  1  0.34672714  0.72335294  0.56502162  1
  C  C80  1  0.24665248  0.74176755  0.52990827  1
  C  C81  1  0.22871284  0.71223223  0.44586114  1
  C  C82  1  0.29496587  0.73630668  0.37573252  1
  C  C83  1  0.25687509  0.69684314  0.30523960  1
  C  C84  1  0.30821485  0.70485584  0.22318118  1
  C  C85  1  0.14161439  0.65350515  0.42367926  1
  C  C86  1  0.16082620  0.78478107  0.57751100  1
  C  C87  1  0.17365509  0.80538439  0.65868743  1
  C  C88  1  0.72211321  0.30148420  0.21510235  1
  C  C89  1  0.73281681  0.28311690  0.30402681  1
  C  C90  1  0.64701244  0.24383395  0.35253596  1
  C  C91  1  0.65924378  0.22446845  0.43465156  1
  C  C92  1  0.75807843  0.24461147  0.47025823  1
  C  C93  1  0.77710858  0.21898545  0.55534750  1
  C  C94  1  0.70458332  0.23385677  0.62369845  1
  C  C95  1  0.74673989  0.20256718  0.69589950  1
  C  C96  1  0.69088836  0.20281725  0.77661210  1
  C  C97  1  0.87314405  0.17575478  0.58100579  1
  C  C98  1  0.84245148  0.28792312  0.42183621  1
  C  C99  1  0.83009509  0.30650193  0.34004953  1
  C  C100  1  0.69488253  0.71772787  0.21759942  1
  C  C101  1  0.71440362  0.72733955  0.30591804  1
  C  C102  1  0.75294736  0.63990050  0.35069058  1
  C  C103  1  0.77526909  0.65135545  0.43183744  1
  C  C104  1  0.75916058  0.75072751  0.46979072  1
  C  C105  1  0.78858359  0.76791268  0.55366011  1
  C  C106  1  0.76391971  0.70192811  0.62263498  1
  C  C107  1  0.80138867  0.74077060  0.69340542  1
  C  C108  1  0.79050495  0.69183505  0.77494932  1
  C  C109  1  0.84547977  0.85547008  0.57720793  1
  C  C110  1  0.71691012  0.83701807  0.42538559  1
  C  C111  1  0.69494744  0.82546248  0.34453861  1
  S  S112  1  0.36082215  0.13036136  0.31443279  1
  S  S113  1  0.13871154  0.62560466  0.32270589  1
  S  S114  1  0.87730494  0.15142794  0.68278784  1
  S  S115  1  0.87074180  0.85937671  0.67814081  1
  I  I116  1  0.26020415  0.04942010  0.03257521  1
  I  I117  1  0.24465390  0.44612411  0.01505676  1
  I  I118  1  0.76331307  0.97852328  0.95214445  1
  I  I119  1  0.74346782  0.57760471  0.99053690  1
  I  I120  1  0.94982003  0.25524160  0.98745487  1
  I  I121  1  0.05058260  0.75171035  0.01477129  1
  I  I122  1  0.56087298  0.25113762  0.00129981  1
  I  I123  1  0.43190864  0.75111813  0.99521816  1
  I  I124  1  0.05243692  0.99758383  0.82824379  1
  I  I125  1  0.96990918  0.01289987  0.20809494  1
  I  I126  1  0.03394423  0.53482932  0.79873009  1
  I  I127  1  0.96204860  0.50668988  0.18106186  1
  I  I128  1  0.47299773  0.01704860  0.79977479  1
  I  I129  1  0.56198981  0.99474816  0.17572063  1
  I  I130  1  0.46695880  0.48522003  0.79855988  1
  I  I131  1  0.50619470  0.49746308  0.18323739  1
  N  N132  1  0.28517733  0.24725644  0.83618871  1
  N  N133  1  0.22202927  0.25184065  0.16747531  1
  N  N134  1  0.25142786  0.70519274  0.83296753  1
  N  N135  1  0.24225366  0.76636176  0.16276401  1
  N  N136  1  0.75589908  0.20464957  0.16617955  1
  N  N137  1  0.75036557  0.26215684  0.83979356  1
  N  N138  1  0.79284964  0.75009534  0.16625713  1
  N  N139  1  0.72629889  0.75994025  0.83440270  1
  F  F140  1  0.37502336  0.05073251  0.46178158  1
  F  F141  1  0.06246862  0.61492001  0.47336160  1
  F  F142  1  0.96033576  0.14911938  0.53422824  1
  F  F143  1  0.88523800  0.93350433  0.52834301  1
