# generated using pymatgen
data_H11PbC6SI4N2F
_symmetry_space_group_name_H-M   'P 1'
_cell_length_a   12.51833276
_cell_length_b   12.65866911
_cell_length_c   11.96111592
_cell_angle_alpha   91.87082194
_cell_angle_beta   90.73112120
_cell_angle_gamma   88.61425344
_symmetry_Int_Tables_number   1
_chemical_formula_structural   H11PbC6SI4N2F
_chemical_formula_sum   'H44 Pb4 C24 S4 I16 N8 F4'
_cell_volume   1893.72312101
_cell_formula_units_Z   4
loop_
 _symmetry_equiv_pos_site_id
 _symmetry_equiv_pos_as_xyz
  1  'x, y, z'
loop_
 _atom_site_type_symbol
 _atom_site_label
 _atom_site_symmetry_multiplicity
 _atom_site_fract_x
 _atom_site_fract_y
 _atom_site_fract_z
 _atom_site_occupancy
  H  H0  1  0.17185012  0.33794947  0.76556414  1
  H  H1  1  0.17253171  0.20728813  0.78614151  1
  H  H2  1  0.23899638  0.28808490  0.87355746  1
  H  H3  1  0.36043260  0.18565480  0.75036498  1
  H  H4  1  0.36986859  0.32630497  0.74062870  1
  H  H5  1  0.28614699  0.07440066  0.57707828  1
  H  H6  1  0.12142446  0.31567774  0.27931108  1
  H  H7  1  0.22898150  0.40377060  0.28722288  1
  H  H8  1  0.23234094  0.29544920  0.12214572  1
  H  H9  1  0.34185295  0.26625186  0.19706711  1
  H  H10  1  0.24038548  0.18250745  0.19160378  1
  H  H11  1  0.33237668  0.83468804  0.76808014  1
  H  H12  1  0.19992799  0.84397610  0.78575143  1
  H  H13  1  0.27877064  0.77602090  0.87606183  1
  H  H14  1  0.17932491  0.65338573  0.75317755  1
  H  H15  1  0.32066548  0.63886384  0.74204235  1
  H  H16  1  0.06816248  0.71568578  0.57567535  1
  H  H17  1  0.31667432  0.87645288  0.29214553  1
  H  H18  1  0.40846121  0.76817554  0.29289963  1
  H  H19  1  0.30305017  0.77412456  0.12676888  1
  H  H20  1  0.27467018  0.66228936  0.18981777  1
  H  H21  1  0.18841351  0.76562052  0.19511619  1
  H  H22  1  0.66353038  0.32668258  0.23143934  1
  H  H23  1  0.79550092  0.32811844  0.21175402  1
  H  H24  1  0.71505800  0.25829442  0.12277188  1
  H  H25  1  0.81738391  0.14036645  0.24339098  1
  H  H26  1  0.67606376  0.13049762  0.25461477  1
  H  H27  1  0.92790784  0.21185901  0.42009074  1
  H  H28  1  0.67536144  0.36897126  0.72146948  1
  H  H29  1  0.58858731  0.26132355  0.71069237  1
  H  H30  1  0.69389393  0.26064739  0.87591816  1
  H  H31  1  0.72871252  0.15191822  0.80205129  1
  H  H32  1  0.80932793  0.25585165  0.80681527  1
  H  H33  1  0.69796311  0.65532997  0.22445403  1
  H  H34  1  0.68318813  0.78558798  0.20658467  1
  H  H35  1  0.76695644  0.71359243  0.12476655  1
  H  H36  1  0.86897305  0.81705140  0.25728440  1
  H  H37  1  0.88830335  0.67738292  0.27044587  1
  H  H38  1  0.78858043  0.92836073  0.42619459  1
  H  H39  1  0.62349749  0.69311880  0.71720275  1
  H  H40  1  0.72826484  0.59722577  0.70730257  1
  H  H41  1  0.74109774  0.69399345  0.87599269  1
  H  H42  1  0.84599355  0.72600885  0.80251630  1
  H  H43  1  0.74345725  0.81246481  0.81657547  1
  Pb  Pb44  1  0.00304126  -0.00041538  0.99340521  1
  Pb  Pb45  1  0.99283230  0.49738941  0.00218630  1
  Pb  Pb46  1  0.49728052  -0.00034249  0.99974844  1
  Pb  Pb47  1  0.49947395  0.50289352  0.00444515  1
  C  C48  1  0.31963039  0.25780049  0.72133966  1
  C  C49  1  0.29370666  0.24606968  0.60020992  1
  C  C50  1  0.27789409  0.15215537  0.54132091  1
  C  C51  1  0.24939341  0.17130384  0.42953969  1
  C  C52  1  0.24324038  0.27618981  0.40190510  1
  C  C53  1  0.20834405  0.32044490  0.29336554  1
  C  C54  1  0.25157306  0.69117378  0.72418328  1
  C  C55  1  0.24127210  0.71163110  0.60270657  1
  C  C56  1  0.14769513  0.72332330  0.54185185  1
  C  C57  1  0.16935551  0.74763168  0.43048892  1
  C  C58  1  0.27587345  0.75421680  0.40466320  1
  C  C59  1  0.32342890  0.79010029  0.29945268  1
  C  C60  1  0.74429008  0.18157633  0.27336751  1
  C  C61  1  0.75479796  0.20658057  0.39521282  1
  C  C62  1  0.84846884  0.22020465  0.45548135  1
  C  C63  1  0.82672670  0.24513692  0.56860440  1
  C  C64  1  0.72016766  0.25012642  0.59616010  1
  C  C65  1  0.67256979  0.28299147  0.70543145  1
  C  C66  1  0.83203279  0.74430066  0.28414226  1
  C  C67  1  0.79873007  0.75641010  0.40245534  1
  C  C68  1  0.77995222  0.85068551  0.46087916  1
  C  C69  1  0.74981304  0.83209067  0.57140177  1
  C  C70  1  0.74539878  0.72721792  0.59819048  1
  C  C71  1  0.70993232  0.68226782  0.70434621  1
  S  S72  1  0.27582079  0.35452599  0.51710714  1
  S  S73  1  0.35254490  0.72719942  0.52117397  1
  S  S74  1  0.64364417  0.22116882  0.47923056  1
  S  S75  1  0.78145510  0.64824541  0.48432211  1
  I  I76  1  0.25215821  0.98491781  0.05049301  1
  I  I77  1  0.24742759  0.50312637  0.04246772  1
  I  I78  1  0.74890947  0.00119475  0.94928602  1
  I  I79  1  0.74602291  0.48614717  0.95096731  1
  I  I80  1  0.02269346  0.24721142  0.99377897  1
  I  I81  1  0.97262947  0.74641106  0.01231795  1
  I  I82  1  0.49492965  0.25109655  0.99364393  1
  I  I83  1  0.50873989  0.74926045  0.01036453  1
  I  I84  1  0.06639965  0.98641553  0.73070264  1
  I  I85  1  0.98781288  0.00651128  0.25395087  1
  I  I86  1  0.02267958  0.49401946  0.73969928  1
  I  I87  1  0.93377790  0.46140317  0.26313739  1
  I  I88  1  0.46577033  0.97261622  0.73348553  1
  I  I89  1  0.52362788  -0.00569283  0.26577810  1
  I  I90  1  0.48049163  0.50504619  0.73739579  1
  I  I91  1  0.54281120  0.50083269  0.27098092  1
  N  N92  1  0.21964407  0.27358415  0.79046703  1
  N  N93  1  0.25963157  0.26172982  0.19535262  1
  N  N94  1  0.26620205  0.79178779  0.79300981  1
  N  N95  1  0.26847114  0.74419379  0.19701935  1
  N  N96  1  0.72862239  0.27939402  0.20551517  1
  N  N97  1  0.73042261  0.23408871  0.80266971  1
  N  N98  1  0.73835073  0.72336253  0.20533743  1
  N  N99  1  0.76361537  0.73279263  0.80537085  1
  F  F100  1  0.23010832  0.09235267  0.35263222  1
  F  F101  1  0.09067595  0.76388179  0.35230481  1
  F  F102  1  0.90481334  0.26265041  0.64714093  1
  F  F103  1  0.72808494  0.91128181  0.64786058  1
