# generated using pymatgen
data_H11PbC6SI4N2F
_symmetry_space_group_name_H-M   'P 1'
_cell_length_a   12.38856879
_cell_length_b   12.33523584
_cell_length_c   12.03950029
_cell_angle_alpha   90.57367639
_cell_angle_beta   90.23175861
_cell_angle_gamma   90.07534918
_symmetry_Int_Tables_number   1
_chemical_formula_structural   H11PbC6SI4N2F
_chemical_formula_sum   'H44 Pb4 C24 S4 I16 N8 F4'
_cell_volume   1839.71832326
_cell_formula_units_Z   4
loop_
 _symmetry_equiv_pos_site_id
 _symmetry_equiv_pos_as_xyz
  1  'x, y, z'
loop_
 _atom_site_type_symbol
 _atom_site_label
 _atom_site_symmetry_multiplicity
 _atom_site_fract_x
 _atom_site_fract_y
 _atom_site_fract_z
 _atom_site_occupancy
  H  H0  1  0.36715432  0.31788574  0.75349474  1
  H  H1  1  0.33569733  0.18588469  0.77308077  1
  H  H2  1  0.29541134  0.28225619  0.86431812  1
  H  H3  1  0.13875327  0.24334242  0.76295006  1
  H  H4  1  0.18755828  0.37270816  0.72288157  1
  H  H5  1  0.22100504  0.40426768  0.51391527  1
  H  H6  1  0.24377400  0.39455619  0.29948113  1
  H  H7  1  0.14590567  0.30111757  0.24894721  1
  H  H8  1  0.28594067  0.18014007  0.19176407  1
  H  H9  1  0.31225320  0.30421981  0.14628002  1
  H  H10  1  0.38216353  0.25406642  0.25420254  1
  H  H11  1  0.30026082  0.62366748  0.75292315  1
  H  H12  1  0.17147514  0.66662101  0.76914419  1
  H  H13  1  0.26818897  0.70035426  0.86287364  1
  H  H14  1  0.24615263  0.85880988  0.76220737  1
  H  H15  1  0.37090187  0.79896169  0.72447452  1
  H  H16  1  0.40497442  0.77205113  0.51336572  1
  H  H17  1  0.39501329  0.75502212  0.29348311  1
  H  H18  1  0.30157536  0.85466290  0.24858206  1
  H  H19  1  0.17430032  0.70613362  0.20460635  1
  H  H20  1  0.29181804  0.69784088  0.13709939  1
  H  H21  1  0.26908046  0.61561537  0.24398181  1
  H  H22  1  0.67700764  0.12891669  0.24236773  1
  H  H23  1  0.81081106  0.15388045  0.23078934  1
  H  H24  1  0.72268435  0.20034159  0.13506273  1
  H  H25  1  0.75806735  0.35570446  0.23799862  1
  H  H26  1  0.62840275  0.30867676  0.27767746  1
  H  H27  1  0.59543272  0.27125638  0.48662927  1
  H  H28  1  0.60399704  0.25018342  0.70189836  1
  H  H29  1  0.69864876  0.34611075  0.75433530  1
  H  H30  1  0.81872416  0.20067462  0.80254579  1
  H  H31  1  0.69605239  0.17975359  0.85403957  1
  H  H32  1  0.73796015  0.10770300  0.74355991  1
  H  H33  1  0.88342923  0.70013637  0.24527957  1
  H  H34  1  0.84024624  0.83033163  0.23196292  1
  H  H35  1  0.80741492  0.73436163  0.13666277  1
  H  H36  1  0.64940227  0.75290782  0.23703960  1
  H  H37  1  0.71042692  0.62849156  0.27471421  1
  H  H38  1  0.73332855  0.59530193  0.48636538  1
  H  H39  1  0.75009494  0.60650912  0.70568281  1
  H  H40  1  0.65157861  0.70068255  0.75227883  1
  H  H41  1  0.80310561  0.82872786  0.79165610  1
  H  H42  1  0.80589327  0.71266752  0.86247612  1
  H  H43  1  0.89005584  0.72845162  0.75576873  1
  Pb  Pb44  1  -0.00412429  0.00996809  0.00480718  1
  Pb  Pb45  1  0.99083279  0.50453177  0.99889657  1
  Pb  Pb46  1  0.49134151  1.00640432  0.99972000  1
  Pb  Pb47  1  0.49434262  0.50624380  0.00043257  1
  C  C48  1  0.20327967  0.28512696  0.71784122  1
  C  C49  1  0.21017994  0.25046282  0.59933026  1
  C  C50  1  0.21843420  0.31603324  0.50786982  1
  C  C51  1  0.22149265  0.25772443  0.40505386  1
  C  C52  1  0.22365470  0.30818118  0.29278806  1
  C  C53  1  0.21687344  0.14806425  0.42467000  1
  C  C54  1  0.28297190  0.79035230  0.71724447  1
  C  C55  1  0.25094209  0.78600174  0.59802793  1
  C  C56  1  0.31735948  0.77728313  0.50681975  1
  C  C57  1  0.26048455  0.77780166  0.40359788  1
  C  C58  1  0.30913393  0.77609814  0.29021672  1
  C  C59  1  0.15147125  0.78560294  0.42288628  1
  C  C60  1  0.71526519  0.29142903  0.28263143  1
  C  C61  1  0.74893577  0.28465612  0.40130748  1
  C  C62  1  0.68314827  0.27533683  0.49272029  1
  C  C63  1  0.74059053  0.27304846  0.59560181  1
  C  C64  1  0.69029250  0.26918255  0.70816015  1
  C  C65  1  0.84977107  0.27965717  0.57616866  1
  C  C66  1  0.71758088  0.71699280  0.28225867  1
  C  C67  1  0.72051815  0.74957419  0.40165043  1
  C  C68  1  0.72821190  0.68338690  0.49290356  1
  C  C69  1  0.72724441  0.74118217  0.59613723  1
  C  C70  1  0.72950245  0.69289439  0.70958077  1
  C  C71  1  0.71968578  0.85056957  0.57660760  1
  S  S72  1  0.20694737  0.11409840  0.56168523  1
  S  S73  1  0.11587144  0.79480559  0.55949315  1
  S  S74  1  0.88442014  0.28968804  0.43926516  1
  S  S75  1  0.71222403  0.88549591  0.43999571  1
  I  I76  1  0.24186476  0.07892737  0.00234003  1
  I  I77  1  0.24292882  0.44599765  0.00450962  1
  I  I78  1  0.73896056  0.94307543  0.99138335  1
  I  I79  1  0.74200388  0.57271673  0.00020468  1
  I  I80  1  0.91801937  0.26018118  0.99725444  1
  I  I81  1  0.05839793  0.75906412  0.00966854  1
  I  I82  1  0.55616625  0.25792448  0.99659840  1
  I  I83  1  0.43023334  0.75538612  0.99714583  1
  I  I84  1  0.98186128  0.00095761  0.74525150  1
  I  I85  1  0.94813982  0.01393665  0.26935711  1
  I  I86  1  0.00664568  0.54526156  0.72972949  1
  I  I87  1  0.99137558  0.52215912  0.26288704  1
  I  I88  1  0.47617607  0.03368468  0.73629780  1
  I  I89  1  0.49942414  0.03611605  0.26922161  1
  I  I90  1  0.46657675  0.49969464  0.72624994  1
  I  I91  1  0.47202052  0.50238377  0.26731005  1
  N  N92  1  0.30690512  0.26527039  0.78069880  1
  N  N93  1  0.30673324  0.25798561  0.21787813  1
  N  N94  1  0.25250944  0.68890555  0.77886349  1
  N  N95  1  0.25623659  0.69325929  0.21538156  1
  N  N96  1  0.73377489  0.18746718  0.21913791  1
  N  N97  1  0.73946645  0.18341078  0.78037038  1
  N  N98  1  0.81867482  0.74892039  0.22090769  1
  N  N99  1  0.81261654  0.74571605  0.78345144  1
  F  F100  1  0.21906013  0.06963097  0.34570068  1
  F  F101  1  0.07462316  0.78679268  0.34294068  1
  F  F102  1  0.92706278  0.27913315  0.65554939  1
  F  F103  1  0.71818726  0.92855710  0.65649257  1
