# generated using pymatgen
data_H22PbC24(I2N)2
_symmetry_space_group_name_H-M   'P 1'
_cell_length_a   12.04145867
_cell_length_b   12.09300612
_cell_length_c   21.37538030
_cell_angle_alpha   89.82163658
_cell_angle_beta   89.89568002
_cell_angle_gamma   87.97883604
_symmetry_Int_Tables_number   1
_chemical_formula_structural   H22PbC24(I2N)2
_chemical_formula_sum   'H88 Pb4 C96 I16 N8'
_cell_volume   3110.67191790
_cell_formula_units_Z   4
loop_
 _symmetry_equiv_pos_site_id
 _symmetry_equiv_pos_as_xyz
  1  'x, y, z'
loop_
 _atom_site_type_symbol
 _atom_site_label
 _atom_site_symmetry_multiplicity
 _atom_site_fract_x
 _atom_site_fract_y
 _atom_site_fract_z
 _atom_site_occupancy
  H  H0  1  0.35503827  0.29581126  0.85807129  1
  H  H1  1  0.35899478  0.15665610  0.85643033  1
  H  H2  1  0.30086646  0.22525608  0.91697048  1
  H  H3  1  0.15432852  0.30562755  0.85287983  1
  H  H4  1  0.15421657  0.15838362  0.85661433  1
  H  H5  1  0.21262334  0.04376285  0.76319777  1
  H  H6  1  0.22895572  0.03427834  0.64981968  1
  H  H7  1  0.20625471  0.49567727  0.65598635  1
  H  H8  1  0.22759713  0.49460984  0.54292752  1
  H  H9  1  0.24470357  0.03279192  0.55602451  1
  H  H10  1  0.26371921  0.03319561  0.44398265  1
  H  H11  1  0.28090153  0.03575268  0.34998242  1
  H  H12  1  0.29696717  0.04729626  0.23631465  1
  H  H13  1  0.33984638  0.15982069  0.14221858  1
  H  H14  1  0.34306728  0.30626250  0.14693306  1
  H  H15  1  0.14292202  0.31708722  0.14247509  1
  H  H16  1  0.19323376  0.23752101  0.08427736  1
  H  H17  1  0.13489034  0.17801441  0.14617390  1
  H  H18  1  0.29416001  0.40291920  0.24509068  1
  H  H19  1  0.28459833  0.49617235  0.34442799  1
  H  H20  1  0.26498681  0.49436758  0.45755559  1
  H  H21  1  0.19727802  0.39993643  0.75530391  1
  H  H22  1  0.31721011  0.62973773  0.85101106  1
  H  H23  1  0.17655557  0.62643428  0.84560369  1
  H  H24  1  0.23341645  0.67408963  0.91036323  1
  H  H25  1  0.31268790  0.82831956  0.85311606  1
  H  H26  1  0.16496439  0.83040652  0.85882890  1
  H  H27  1  0.04877280  0.78529797  0.76427889  1
  H  H28  1  0.03675633  0.77530183  0.65072561  1
  H  H29  1  0.49902561  0.79644957  0.65366215  1
  H  H30  1  0.49672323  0.77431955  0.54060584  1
  H  H31  1  0.03420309  0.75855983  0.55727265  1
  H  H32  1  0.03348334  0.73660203  0.44544876  1
  H  H33  1  0.03516390  0.72272757  0.35191911  1
  H  H34  1  0.04508737  0.70574279  0.23829899  1
  H  H35  1  0.15706862  0.66115138  0.14358332  1
  H  H36  1  0.30491149  0.64970460  0.14750729  1
  H  H37  1  0.31406897  0.84528297  0.14269793  1
  H  H38  1  0.22704124  0.80602029  0.08702314  1
  H  H39  1  0.17500986  0.86543553  0.15180159  1
  H  H40  1  0.40276842  0.69483964  0.24515473  1
  H  H41  1  0.49821511  0.70803877  0.34362857  1
  H  H42  1  0.49737778  0.73281315  0.45638021  1
  H  H43  1  0.40525237  0.79951824  0.75355379  1
  H  H44  1  0.69788558  0.16232541  0.13413232  1
  H  H45  1  0.83737112  0.15575224  0.14190984  1
  H  H46  1  0.78144777  0.22217686  0.08084708  1
  H  H47  1  0.68812389  0.35798914  0.15010010  1
  H  H48  1  0.83548148  0.36245152  0.14608432  1
  H  H49  1  0.95310056  0.29948765  0.23708745  1
  H  H50  1  0.96503791  0.27484937  0.35012359  1
  H  H51  1  0.50205341  0.28257131  0.34483616  1
  H  H52  1  0.50434227  0.25927562  0.45773613  1
  H  H53  1  0.96781818  0.25809311  0.44413332  1
  H  H54  1  0.96857802  0.23789702  0.55610434  1
  H  H55  1  0.96726726  0.22230632  0.64979505  1
  H  H56  1  0.95743458  0.21185579  0.76339853  1
  H  H57  1  0.84258487  0.16186436  0.85869427  1
  H  H58  1  0.69464553  0.16810379  0.85442176  1
  H  H59  1  0.69873200  0.36790361  0.85140853  1
  H  H60  1  0.76927574  0.31794153  0.91287865  1
  H  H61  1  0.83901858  0.36502906  0.85118836  1
  H  H62  1  0.60091806  0.19597628  0.75566582  1
  H  H63  1  0.50534659  0.19975181  0.65606637  1
  H  H64  1  0.50599043  0.22056421  0.54294756  1
  H  H65  1  0.59583210  0.29880809  0.24575811  1
  H  H66  1  0.84822517  0.69427209  0.13948913  1
  H  H67  1  0.84304376  0.83240244  0.14965974  1
  H  H68  1  0.78772766  0.77997832  0.08560279  1
  H  H69  1  0.65240403  0.68069882  0.15122797  1
  H  H70  1  0.63532687  0.82774730  0.14687666  1
  H  H71  1  0.70302552  0.94621559  0.23707495  1
  H  H72  1  0.72757605  0.95908290  0.35002042  1
  H  H73  1  0.71455961  0.49880235  0.34906430  1
  H  H74  1  0.74092381  0.50243465  0.46170146  1
  H  H75  1  0.74173231  0.96340192  0.44373018  1
  H  H76  1  0.76284510  0.96547664  0.55566880  1
  H  H77  1  0.77965926  0.96496997  0.64942274  1
  H  H78  1  0.78864141  0.95627167  0.76327773  1
  H  H79  1  0.82585652  0.84444088  0.85966658  1
  H  H80  1  0.84123757  0.69766897  0.85517672  1
  H  H81  1  0.63883684  0.68735692  0.85071562  1
  H  H82  1  0.67967447  0.75978078  0.91285271  1
  H  H83  1  0.62481402  0.82697750  0.85113189  1
  H  H84  1  0.80200521  0.60024075  0.75745968  1
  H  H85  1  0.80063746  0.50373704  0.65912370  1
  H  H86  1  0.78111376  0.50339766  0.54587293  1
  H  H87  1  0.69677183  0.59085238  0.24940348  1
  Pb  Pb88  1  1.00361831  0.00009670  0.99615590  1
  Pb  Pb89  1  0.99448846  0.51361285  0.99530459  1
  Pb  Pb90  1  0.51366835  0.00960779  0.99444607  1
  Pb  Pb91  1  0.48197888  0.50623002  0.00583743  1
  C  C92  1  0.19812324  0.22915271  0.83759574  1
  C  C93  1  0.20717706  0.22334537  0.76753677  1
  C  C94  1  0.21499876  0.12035744  0.73624329  1
  C  C95  1  0.22377861  0.11552969  0.67171553  1
  C  C96  1  0.22598031  0.21292619  0.63467090  1
  C  C97  1  0.21622780  0.31684838  0.66641573  1
  C  C98  1  0.21610512  0.41717160  0.63118489  1
  C  C99  1  0.22840928  0.41589463  0.56769471  1
  C  C100  1  0.24107469  0.31439303  0.53368580  1
  C  C101  1  0.23781129  0.21225832  0.56695078  1
  C  C102  1  0.24691334  0.11231031  0.53202918  1
  C  C103  1  0.25799380  0.11255064  0.46798630  1
  C  C104  1  0.26272297  0.21271463  0.43310515  1
  C  C105  1  0.27409314  0.21405923  0.36535321  1
  C  C106  1  0.28140037  0.11723856  0.32811825  1
  C  C107  1  0.28983429  0.12330092  0.26360734  1
  C  C108  1  0.29166590  0.22661611  0.23241383  1
  C  C109  1  0.29807303  0.23350626  0.16238251  1
  C  C110  1  0.28817505  0.32230996  0.26787435  1
  C  C111  1  0.27920276  0.31824732  0.33375225  1
  C  C112  1  0.27681025  0.41788553  0.36916380  1
  C  C113  1  0.26557309  0.41607192  0.43268287  1
  C  C114  1  0.25600853  0.31455236  0.46654147  1
  C  C115  1  0.20672234  0.31963588  0.73228192  1
  C  C116  1  0.23737899  0.78854031  0.83695365  1
  C  C117  1  0.22905214  0.78938818  0.76693160  1
  C  C118  1  0.12496594  0.78425756  0.73658834  1
  C  C119  1  0.11866556  0.77893993  0.67203163  1
  C  C120  1  0.21575074  0.77732400  0.63432480  1
  C  C121  1  0.32038436  0.78628597  0.66518195  1
  C  C122  1  0.42032993  0.78678463  0.62936199  1
  C  C123  1  0.41838707  0.77399153  0.56600216  1
  C  C124  1  0.31643210  0.76078670  0.53298473  1
  C  C125  1  0.21429194  0.76519131  0.56678293  1
  C  C126  1  0.11364402  0.75560883  0.53273688  1
  C  C127  1  0.11328313  0.74288594  0.46887920  1
  C  C128  1  0.21365207  0.73673416  0.43357308  1
  C  C129  1  0.21443331  0.72367278  0.36608635  1
  C  C130  1  0.11662501  0.71884090  0.32960117  1
  C  C131  1  0.12169850  0.70965559  0.26516671  1
  C  C132  1  0.22514760  0.70302178  0.23362919  1
  C  C133  1  0.23111492  0.69760961  0.16364108  1
  C  C134  1  0.32199110  0.70395313  0.26836472  1
  C  C135  1  0.31884475  0.71525168  0.33405366  1
  C  C136  1  0.41958929  0.71765382  0.36871619  1
  C  C137  1  0.41827173  0.73184184  0.43198199  1
  C  C138  1  0.31624377  0.74365543  0.46617460  1
  C  C139  1  0.32454906  0.79251656  0.73100343  1
  C  C140  1  0.76614245  0.31444570  0.16347462  1
  C  C141  1  0.77306438  0.29815531  0.23311352  1
  C  C142  1  0.87686348  0.29169454  0.26416356  1
  C  C143  1  0.88315749  0.27840724  0.32842918  1
  C  C144  1  0.78607154  0.27070712  0.36560170  1
  C  C145  1  0.68128095  0.27797749  0.33409447  1
  C  C146  1  0.58107958  0.27392933  0.36946767  1
  C  C147  1  0.58314092  0.26056011  0.43287052  1
  C  C148  1  0.68552336  0.25025489  0.46664670  1
  C  C149  1  0.78762809  0.25740206  0.43324470  1
  C  C150  1  0.88829879  0.25205112  0.46810291  1
  C  C151  1  0.88875400  0.24035090  0.53211164  1
  C  C152  1  0.78865078  0.23112569  0.56699254  1
  C  C153  1  0.78810028  0.21992750  0.63472002  1
  C  C154  1  0.88575356  0.21868908  0.67175865  1
  C  C155  1  0.88065611  0.21327990  0.73638098  1
  C  C156  1  0.77727005  0.20777045  0.76766839  1
  C  C157  1  0.77066704  0.20635774  0.83779856  1
  C  C158  1  0.68109412  0.20439932  0.73245011  1
  C  C159  1  0.68406138  0.21077610  0.66648430  1
  C  C160  1  0.58370935  0.20954699  0.63123344  1
  C  C161  1  0.58477389  0.22149677  0.56771303  1
  C  C162  1  0.68612428  0.23449751  0.53373033  1
  C  C163  1  0.67701560  0.29166516  0.26845740  1
  C  C164  1  0.68765317  0.75914389  0.16556744  1
  C  C165  1  0.70008385  0.76678064  0.23524081  1
  C  C166  1  0.70881208  0.87057780  0.26501022  1
  C  C167  1  0.72219612  0.87741102  0.32912075  1
  C  C168  1  0.72849160  0.78116252  0.36712353  1
  C  C169  1  0.71961238  0.67657614  0.33677728  1
  C  C170  1  0.72394801  0.57743475  0.37291481  1
  C  C171  1  0.73902095  0.58026230  0.43608790  1
  C  C172  1  0.75014066  0.68236800  0.46871759  1
  C  C173  1  0.74264995  0.78367043  0.43454693  1
  C  C174  1  0.74836194  0.88447483  0.46838977  1
  C  C175  1  0.76058880  0.88564897  0.53230238  1
  C  C176  1  0.77009283  0.78613478  0.56791770  1
  C  C177  1  0.78115129  0.78624866  0.63556149  1
  C  C178  1  0.78274813  0.88398920  0.67194588  1
  C  C179  1  0.78741742  0.87960763  0.73662535  1
  C  C180  1  0.79176986  0.77681646  0.76845021  1
  C  C181  1  0.79220447  0.77022360  0.83855646  1
  C  C182  1  0.79479188  0.68032132  0.73382085  1
  C  C183  1  0.78939812  0.68258681  0.66796018  1
  C  C184  1  0.79099392  0.58179357  0.63359742  1
  C  C185  1  0.77970406  0.58232194  0.57013950  1
  C  C186  1  0.76663030  0.68350947  0.53558833  1
  C  C187  1  0.70502254  0.67164021  0.27133054  1
  I  I188  1  0.25604468  0.06114521  0.00937204  1
  I  I189  1  0.23990414  0.41281116  0.99426706  1
  I  I190  1  0.76180832  0.91060337  0.99463790  1
  I  I191  1  0.73756881  0.55112933  0.99593058  1
  I  I192  1  0.93845253  0.25523275  -0.00137695  1
  I  I193  1  0.09893195  0.75006126  0.99815239  1
  I  I194  1  0.56211985  0.25802551  0.97296341  1
  I  I195  1  0.45284928  0.76216993  0.02458942  1
  I  I196  1  0.00302859  0.99492818  0.85424616  1
  I  I197  1  0.99888431  0.00193971  0.16106754  1
  I  I198  1  1.00000102  0.50404025  0.84121639  1
  I  I199  1  0.98853339  0.51776360  0.14527127  1
  I  I200  1  0.49626339  0.99538285  0.83885976  1
  I  I201  1  0.53867404  0.04121041  0.14161550  1
  I  I202  1  0.50105784  0.52272346  0.84050896  1
  I  I203  1  0.48813979  0.48801581  0.15043875  1
  N  N204  1  0.31051835  0.22683836  0.86872362  1
  N  N205  1  0.18435487  0.24272708  0.13257277  1
  N  N206  1  0.24230635  0.67191389  0.86204426  1
  N  N207  1  0.23788700  0.81164089  0.13529086  1
  N  N208  1  0.77040339  0.20685050  0.12825795  1
  N  N209  1  0.76917317  0.32185084  0.86439166  1
  N  N210  1  0.79899941  0.76611713  0.13341501  1
  N  N211  1  0.67653397  0.75971481  0.86439750  1
