# generated using pymatgen
data_H17PbC14I4N2F
_symmetry_space_group_name_H-M   'P 1'
_cell_length_a   12.29960246
_cell_length_b   12.24697697
_cell_length_c   17.08063685
_cell_angle_alpha   90.08180392
_cell_angle_beta   90.03830823
_cell_angle_gamma   89.84562399
_symmetry_Int_Tables_number   1
_chemical_formula_structural   H17PbC14I4N2F
_chemical_formula_sum   'H68 Pb4 C56 I16 N8 F4'
_cell_volume   2572.89415316
_cell_formula_units_Z   4
loop_
 _symmetry_equiv_pos_site_id
 _symmetry_equiv_pos_as_xyz
  1  'x, y, z'
loop_
 _atom_site_type_symbol
 _atom_site_label
 _atom_site_symmetry_multiplicity
 _atom_site_fract_x
 _atom_site_fract_y
 _atom_site_fract_z
 _atom_site_occupancy
  H  H0  1  0.20299656  0.36844390  0.81610158  1
  H  H1  1  0.24695345  0.30309429  0.89612260  1
  H  H2  1  0.16146650  0.24252430  0.83539894  1
  H  H3  1  0.33672968  0.16356979  0.81720176  1
  H  H4  1  0.39356223  0.29648000  0.80834520  1
  H  H5  1  0.23217663  0.08192194  0.70628956  1
  H  H6  1  0.19679195  0.08116461  0.56350379  1
  H  H7  1  0.30779619  0.08118937  0.43839203  1
  H  H8  1  0.27070144  0.08041237  0.29572349  1
  H  H9  1  0.10104520  0.28886712  0.19611960  1
  H  H10  1  0.16307075  0.15862330  0.18658117  1
  H  H11  1  0.23422035  0.29654826  0.10195854  1
  H  H12  1  0.33301717  0.24659284  0.15847276  1
  H  H13  1  0.28342083  0.37045398  0.17720622  1
  H  H14  1  0.12954503  0.40285728  0.31553773  1
  H  H15  1  0.33623814  0.40293625  0.54492783  1
  H  H16  1  0.37217427  0.40298840  0.68742984  1
  H  H17  1  0.36785813  0.79309846  0.81696684  1
  H  H18  1  0.29920119  0.74978496  0.89591902  1
  H  H19  1  0.24280226  0.83751177  0.83459998  1
  H  H20  1  0.16252233  0.66183184  0.81600704  1
  H  H21  1  0.29467563  0.60370402  0.80712219  1
  H  H22  1  0.08196337  0.76729644  0.70548373  1
  H  H23  1  0.08196284  0.80336814  0.56267131  1
  H  H24  1  0.08260675  0.69149142  0.43818256  1
  H  H25  1  0.08094939  0.72981065  0.29576382  1
  H  H26  1  0.28848324  0.89900658  0.19581226  1
  H  H27  1  0.15814409  0.83849841  0.18680310  1
  H  H28  1  0.29402927  0.76352867  0.10218075  1
  H  H29  1  0.24364266  0.66621729  0.15977146  1
  H  H30  1  0.36763535  0.71388234  0.17775051  1
  H  H31  1  0.40163754  0.87080456  0.31518284  1
  H  H32  1  0.40324803  0.66357772  0.54448891  1
  H  H33  1  0.40233106  0.62663470  0.68710568  1
  H  H34  1  0.62971267  0.28085003  0.17782385  1
  H  H35  1  0.70053715  0.23128152  0.10147243  1
  H  H36  1  0.75266111  0.32930853  0.15748622  1
  H  H37  1  0.84064397  0.15904353  0.18510242  1
  H  H38  1  0.71138215  0.09659558  0.19487513  1
  H  H39  1  0.91921135  0.26527819  0.29476647  1
  H  H40  1  0.91885543  0.30337328  0.43729653  1
  H  H41  1  0.91814002  0.19325659  0.56232705  1
  H  H42  1  0.91752956  0.22747747  0.70532025  1
  H  H43  1  0.70506527  0.39296945  0.80619098  1
  H  H44  1  0.83724916  0.33539553  0.81525618  1
  H  H45  1  0.69862585  0.25338117  0.89740201  1
  H  H46  1  0.75876384  0.16153284  0.84078187  1
  H  H47  1  0.63327339  0.20197242  0.81951817  1
  H  H48  1  0.59600693  0.36829129  0.68549375  1
  H  H49  1  0.59754355  0.16557239  0.45538607  1
  H  H50  1  0.59862257  0.12699442  0.31307573  1
  H  H51  1  0.71886259  0.63164435  0.17846188  1
  H  H52  1  0.76691842  0.70374889  0.10204154  1
  H  H53  1  0.67045205  0.75567152  0.15947501  1
  H  H54  1  0.84079660  0.84240704  0.18576759  1
  H  H55  1  0.90264185  0.71192659  0.19501669  1
  H  H56  1  0.73461628  0.92099020  0.29523433  1
  H  H57  1  0.69585427  0.92013114  0.43750859  1
  H  H58  1  0.80811692  0.91813942  0.56234513  1
  H  H59  1  0.77375330  0.91814845  0.70536511  1
  H  H60  1  0.60688008  0.70668172  0.80549037  1
  H  H61  1  0.66427474  0.83906721  0.81485132  1
  H  H62  1  0.74557149  0.70086931  0.89709292  1
  H  H63  1  0.83765530  0.75831290  0.83994454  1
  H  H64  1  0.79611092  0.63270031  0.81965022  1
  H  H65  1  0.62994035  0.59761321  0.68506537  1
  H  H66  1  0.83377789  0.59687978  0.45539588  1
  H  H67  1  0.87288226  0.59838536  0.31316814  1
  Pb  Pb68  1  0.99580767  0.00639184  0.99737841  1
  Pb  Pb69  1  0.99487896  0.50190872  0.99657557  1
  Pb  Pb70  1  0.48946863  1.00032698  0.99653597  1
  Pb  Pb71  1  0.49906447  0.50955775  0.01060015  1
  C  C72  1  0.32343517  0.24547529  0.79313363  1
  C  C73  1  0.30316304  0.24324164  0.70653712  1
  C  C74  1  0.25497174  0.15237591  0.67088675  1
  C  C75  1  0.23530687  0.15196495  0.59049620  1
  C  C76  1  0.26294253  0.24245368  0.54406820  1
  C  C77  1  0.24176599  0.24179691  0.45870940  1
  C  C78  1  0.26901113  0.15182952  0.41119247  1
  C  C79  1  0.24895464  0.15156334  0.33088904  1
  C  C80  1  0.20018251  0.24211790  0.29500440  1
  C  C81  1  0.17483339  0.24164719  0.20910206  1
  C  C82  1  0.17090789  0.33234144  0.34100361  1
  C  C83  1  0.19229060  0.33047130  0.42067020  1
  C  C84  1  0.31209863  0.33297127  0.58010864  1
  C  C85  1  0.33230753  0.33298123  0.66025707  1
  C  C86  1  0.24421943  0.67467282  0.79214884  1
  C  C87  1  0.24273729  0.69566550  0.70575556  1
  C  C88  1  0.15236302  0.74446036  0.67010619  1
  C  C89  1  0.15234226  0.76444229  0.58980926  1
  C  C90  1  0.24276177  0.73658588  0.54352746  1
  C  C91  1  0.24208632  0.75805797  0.45832155  1
  C  C92  1  0.15246391  0.73085628  0.41100822  1
  C  C93  1  0.15176455  0.75153697  0.33086348  1
  C  C94  1  0.24155878  0.80062764  0.29500417  1
  C  C95  1  0.24079501  0.82574398  0.20913413  1
  C  C96  1  0.33157617  0.82960090  0.34078385  1
  C  C97  1  0.33004719  0.80782574  0.42035740  1
  C  C98  1  0.33301160  0.68711970  0.57960785  1
  C  C99  1  0.33260486  0.66654893  0.65967161  1
  C  C100  1  0.75817413  0.17054241  0.20809077  1
  C  C101  1  0.75800215  0.19578237  0.29403633  1
  C  C102  1  0.84827060  0.24417557  0.32994199  1
  C  C103  1  0.84832555  0.26483762  0.41025545  1
  C  C104  1  0.75785541  0.23782414  0.45658791  1
  C  C105  1  0.75798705  0.25885157  0.54199543  1
  C  C106  1  0.84741496  0.23146576  0.58958200  1
  C  C107  1  0.84714609  0.25038000  0.67003657  1
  C  C108  1  0.75642761  0.29843026  0.70592051  1
  C  C109  1  0.75526078  0.32134003  0.79223170  1
  C  C110  1  0.66673455  0.32786254  0.65990573  1
  C  C111  1  0.66898695  0.30737354  0.58006049  1
  C  C112  1  0.66775457  0.18865618  0.42028197  1
  C  C113  1  0.66809152  0.16749944  0.34022798  1
  C  C114  1  0.82934067  0.75958610  0.20857121  1
  C  C115  1  0.80452681  0.75902642  0.29447430  1
  C  C116  1  0.75585592  0.84965575  0.33032977  1
  C  C117  1  0.73480352  0.84943494  0.41050251  1
  C  C118  1  0.76179413  0.75830836  0.45657963  1
  C  C119  1  0.74077253  0.75856165  0.54189415  1
  C  C120  1  0.76923584  0.84782801  0.58955897  1
  C  C121  1  0.75028209  0.84782583  0.66996409  1
  C  C122  1  0.70125883  0.75755196  0.70558454  1
  C  C123  1  0.67825025  0.75666206  0.79175638  1
  C  C124  1  0.67090479  0.66797498  0.65950428  1
  C  C125  1  0.69121443  0.67012094  0.57971339  1
  C  C126  1  0.81099529  0.66765677  0.42035958  1
  C  C127  1  0.83250454  0.66827222  0.34038919  1
  I  I128  1  0.24531101  0.92007813  0.00358834  1
  I  I129  1  0.24913543  0.55807377  0.99577538  1
  I  I130  1  0.74460907  0.06419346  0.00290719  1
  I  I131  1  0.74824744  0.43324609  0.99865309  1
  I  I132  1  0.07772469  0.25220118  0.00388852  1
  I  I133  1  0.93106547  0.75156868  0.00323045  1
  I  I134  1  0.44959398  0.25529366  0.00193552  1
  I  I135  1  0.57397909  0.75451986  0.99625151  1
  I  I136  1  0.00329715  0.00704088  0.80691019  1
  I  I137  1  0.00168460  0.00202083  0.18297818  1
  I  I138  1  0.99619309  0.50148054  0.80717059  1
  I  I139  1  0.00511398  0.50191396  0.18383606  1
  I  I140  1  0.49691829  0.99887074  0.80720891  1
  I  I141  1  0.49894137  0.99569634  0.18378501  1
  I  I142  1  0.50317453  0.50211099  0.82348404  1
  I  I143  1  0.49579569  0.50735276  0.19997690  1
  N  N144  1  0.22820956  0.29345172  0.83732400  1
  N  N145  1  0.26271091  0.29258842  0.15951773  1
  N  N146  1  0.29216231  0.76932823  0.83702560  1
  N  N147  1  0.29032764  0.73602368  0.15993002  1
  N  N148  1  0.70648104  0.25924202  0.15900706  1
  N  N149  1  0.70801972  0.22880361  0.83956078  1
  N  N150  1  0.74019862  0.70878184  0.15983647  1
  N  N151  1  0.77013620  0.70852374  0.83914029  1
  F  F152  1  0.15949796  0.41878913  0.46390236  1
  F  F153  1  0.41792975  0.84049810  0.46360880  1
  F  F154  1  0.58090167  0.33909643  0.53701687  1
  F  F155  1  0.65765820  0.58251213  0.53639045  1
