# generated using pymatgen
data_H15PbC12SI4N2F
_symmetry_space_group_name_H-M   'P 1'
_cell_length_a   12.38965489
_cell_length_b   12.44637098
_cell_length_c   16.23634863
_cell_angle_alpha   90.39726489
_cell_angle_beta   90.65161343
_cell_angle_gamma   89.59647207
_symmetry_Int_Tables_number   1
_chemical_formula_structural   H15PbC12SI4N2F
_chemical_formula_sum   'H60 Pb4 C48 S4 I16 N8 F4'
_cell_volume   2503.46347709
_cell_formula_units_Z   4
loop_
 _symmetry_equiv_pos_site_id
 _symmetry_equiv_pos_as_xyz
  1  'x, y, z'
loop_
 _atom_site_type_symbol
 _atom_site_label
 _atom_site_symmetry_multiplicity
 _atom_site_fract_x
 _atom_site_fract_y
 _atom_site_fract_z
 _atom_site_occupancy
  H  H0  1  0.31281149  0.11059267  0.79516651  1
  H  H1  1  0.33214153  0.23071447  0.83758097  1
  H  H2  1  0.25839912  0.14202034  0.88550452  1
  H  H3  1  0.15362663  0.29110766  0.81876710  1
  H  H4  1  0.11014732  0.15696139  0.79842533  1
  H  H5  1  0.23959223  0.39705872  0.70932997  1
  H  H6  1  0.26275689  0.42359658  0.55939709  1
  H  H7  1  0.14398113  0.43773487  0.42414150  1
  H  H8  1  0.19428944  0.43457879  0.26629702  1
  H  H9  1  0.40293181  0.23182748  0.20623545  1
  H  H10  1  0.31234060  0.32863694  0.16484737  1
  H  H11  1  0.29517865  0.15236253  0.10505054  1
  H  H12  1  0.26177384  0.09818079  0.19474077  1
  H  H13  1  0.17871653  0.18767951  0.14896525  1
  H  H14  1  0.13707429  0.07068850  0.66090717  1
  H  H15  1  0.11347693  0.68690087  0.79739587  1
  H  H16  1  0.23968472  0.66427709  0.82846539  1
  H  H17  1  0.15679785  0.73561111  0.88749550  1
  H  H18  1  0.29178829  0.84702818  0.81911957  1
  H  H19  1  0.15455786  0.88562630  0.80119819  1
  H  H20  1  0.39915827  0.76309708  0.70925786  1
  H  H21  1  0.42565009  0.74018311  0.55903348  1
  H  H22  1  0.43856724  0.85171778  0.42607957  1
  H  H23  1  0.43473005  0.79910820  0.26780524  1
  H  H24  1  0.22374894  0.60091577  0.20418537  1
  H  H25  1  0.32853875  0.68233715  0.16677660  1
  H  H26  1  0.16416648  0.71890291  0.09990723  1
  H  H27  1  0.09658760  0.73988985  0.18692317  1
  H  H28  1  0.19079049  0.82922829  0.15677036  1
  H  H29  1  0.06756744  0.85853134  0.66256538  1
  H  H30  1  0.89286221  0.20371801  0.20214504  1
  H  H31  1  0.77164692  0.17911316  0.16251283  1
  H  H32  1  0.85548115  0.25779149  0.11266152  1
  H  H33  1  0.70625777  0.35672205  0.18220464  1
  H  H34  1  0.83984435  0.40190075  0.20308892  1
  H  H35  1  0.60104653  0.26945959  0.29060319  1
  H  H36  1  0.57580773  0.24013972  0.44003944  1
  H  H37  1  0.55903535  0.35315499  0.57343626  1
  H  H38  1  0.56277624  0.30897406  0.73216083  1
  H  H39  1  0.77360892  0.10859730  0.79655586  1
  H  H40  1  0.67385569  0.19691035  0.83708824  1
  H  H41  1  0.86687203  0.21367994  0.88710338  1
  H  H42  1  0.89428977  0.27519842  0.79870898  1
  H  H43  1  0.80385822  0.32809250  0.86369793  1
  H  H44  1  0.93012616  0.36707664  0.33969318  1
  H  H45  1  0.79751627  0.88882259  0.19647997  1
  H  H46  1  0.82780431  0.76289284  0.16989676  1
  H  H47  1  0.74711437  0.83634465  0.10903865  1
  H  H48  1  0.64586261  0.70271620  0.18289261  1
  H  H49  1  0.60349827  0.83823906  0.20009565  1
  H  H50  1  0.73207604  0.59873965  0.29188599  1
  H  H51  1  0.75970769  0.57312876  0.44211593  1
  H  H52  1  0.64816051  0.55886705  0.57419114  1
  H  H53  1  0.69444105  0.56375286  0.73340774  1
  H  H54  1  0.89116229  0.77873451  0.79778996  1
  H  H55  1  0.80920077  0.67493228  0.83731581  1
  H  H56  1  0.77939356  0.85952078  0.89089143  1
  H  H57  1  0.72369064  0.89444699  0.80067346  1
  H  H58  1  0.66706020  0.79979934  0.85849239  1
  H  H59  1  0.63730964  0.92851645  0.33707385  1
  Pb  Pb60  1  0.99584718  1.00144316  0.00630190  1
  Pb  Pb61  1  -0.00169667  0.50561852  0.00062190  1
  Pb  Pb62  1  0.50073195  0.99483503  0.99706632  1
  Pb  Pb63  1  0.49522391  0.49626060  0.99489784  1
  C  C64  1  0.17365451  0.21579937  0.78666729  1
  C  C65  1  0.18807248  0.23229973  0.69604600  1
  C  C66  1  0.22218912  0.33159053  0.66628369  1
  C  C67  1  0.23508659  0.34646394  0.58213786  1
  C  C68  1  0.21464223  0.26354252  0.52468533  1
  C  C69  1  0.22567594  0.28351768  0.43627221  1
  C  C70  1  0.18967841  0.37366536  0.39443097  1
  C  C71  1  0.21647427  0.37202124  0.30998140  1
  C  C72  1  0.27425165  0.28171345  0.28746116  1
  C  C73  1  0.31815166  0.25800771  0.20460858  1
  C  C74  1  0.18103589  0.16505944  0.55684371  1
  C  C75  1  0.16675428  0.14823243  0.64038257  1
  C  C76  1  0.21642444  0.82473144  0.78751132  1
  C  C77  1  0.23208584  0.81126091  0.69667287  1
  C  C78  1  0.33269612  0.77906037  0.66642585  1
  C  C79  1  0.34753115  0.76658915  0.58218127  1
  C  C80  1  0.26308861  0.78571384  0.52519323  1
  C  C81  1  0.28267090  0.77439445  0.43687616  1
  C  C82  1  0.37382999  0.80734584  0.39582013  1
  C  C83  1  0.37190026  0.77954645  0.31132955  1
  C  C84  1  0.28009449  0.72479192  0.28817952  1
  C  C85  1  0.25571384  0.68287321  0.20446900  1
  C  C86  1  0.16326330  0.81732936  0.55775397  1
  C  C87  1  0.14644877  0.83095853  0.64149041  1
  C  C88  1  0.78249259  0.33671716  0.21382433  1
  C  C89  1  0.76719510  0.31819477  0.30410750  1
  C  C90  1  0.66764984  0.28356712  0.33371219  1
  C  C91  1  0.65322543  0.26814375  0.41763179  1
  C  C92  1  0.73695222  0.28687736  0.47536277  1
  C  C93  1  0.71646633  0.27590309  0.56367217  1
  C  C94  1  0.62454844  0.31015985  0.60428681  1
  C  C95  1  0.62611767  0.28616842  0.68928534  1
  C  C96  1  0.71833659  0.23191174  0.71331871  1
  C  C97  1  0.74443188  0.19200376  0.79712730  1
  C  C98  1  0.83601131  0.32022351  0.44332568  1
  C  C99  1  0.85235670  0.33693966  0.35997763  1
  C  C100  1  0.66729254  0.77885597  0.21308080  1
  C  C101  1  0.68554658  0.76516662  0.30373537  1
  C  C102  1  0.71830866  0.66524877  0.33453385  1
  C  C103  1  0.73254546  0.65070885  0.41871227  1
  C  C104  1  0.71369930  0.73473058  0.47543319  1
  C  C105  1  0.72424593  0.71501078  0.56392369  1
  C  C106  1  0.69086838  0.62410713  0.60495641  1
  C  C107  1  0.71582500  0.62632783  0.69012148  1
  C  C108  1  0.76951980  0.71826828  0.71366083  1
  C  C109  1  0.80931786  0.74565632  0.79751883  1
  C  C110  1  0.68134826  0.83383656  0.44229580  1
  C  C111  1  0.66673973  0.85060918  0.35857956  1
  S  S112  1  0.29457358  0.19740481  0.37061129  1
  S  S113  1  0.19468315  0.70852699  0.37040419  1
  S  S114  1  0.80414678  0.21135209  0.63119507  1
  S  S115  1  0.78833568  0.80294876  0.63117880  1
  I  I116  1  0.24631839  0.94618317  0.99972304  1
  I  I117  1  0.24248153  0.57199791  1.00241127  1
  I  I118  1  0.74773443  0.06558129  0.00944276  1
  I  I119  1  0.74717630  0.43953907  0.98374358  1
  I  I120  1  0.05479423  0.25480126  0.01752400  1
  I  I121  1  0.94064038  0.75805171  0.99613185  1
  I  I122  1  0.43239908  0.24757665  0.99296491  1
  I  I123  1  0.57403446  0.75023252  0.99800884  1
  I  I124  1  0.96588723  0.99960787  0.80570365  1
  I  I125  1  0.00099271  0.00190180  0.20481548  1
  I  I126  1  0.00285359  0.49570297  0.80469804  1
  I  I127  1  0.97492255  0.56732762  0.20169043  1
  I  I128  1  0.49832176  0.99476637  0.79846568  1
  I  I129  1  0.50095937  0.02800428  0.19524946  1
  I  I130  1  0.44005766  0.51478545  0.79989531  1
  I  I131  1  0.50750128  0.49940508  0.18903357  1
  N  N132  1  0.27455577  0.17207576  0.82767844  1
  N  N133  1  0.25856921  0.16804053  0.16116579  1
  N  N134  1  0.17905926  0.72228250  0.82701101  1
  N  N135  1  0.17141891  0.74909308  0.15974967  1
  N  N136  1  0.82835083  0.23870231  0.17089787  1
  N  N137  1  0.83330002  0.25611088  0.83854791  1
  N  N138  1  0.76626359  0.81967487  0.16995683  1
  N  N139  1  0.74018555  0.83039577  0.83877918  1
  F  F140  1  0.15849030  0.08245002  0.50381946  1
  F  F141  1  0.07914149  0.83795825  0.50515698  1
  F  F142  1  0.91981209  0.34068081  0.49647639  1
  F  F143  1  0.65896757  0.91732378  0.49481609  1
