# generated using pymatgen
data_H18PbC22(I2N)2
_symmetry_space_group_name_H-M   'P 1'
_cell_length_a   12.24227203
_cell_length_b   12.23323462
_cell_length_c   20.16222119
_cell_angle_alpha   92.29101522
_cell_angle_beta   92.32325490
_cell_angle_gamma   91.87348552
_symmetry_Int_Tables_number   1
_chemical_formula_structural   H18PbC22(I2N)2
_chemical_formula_sum   'H72 Pb4 C88 I16 N8'
_cell_volume   3012.87177382
_cell_formula_units_Z   4
loop_
 _symmetry_equiv_pos_site_id
 _symmetry_equiv_pos_as_xyz
  1  'x, y, z'
loop_
 _atom_site_type_symbol
 _atom_site_label
 _atom_site_symmetry_multiplicity
 _atom_site_fract_x
 _atom_site_fract_y
 _atom_site_fract_z
 _atom_site_occupancy
  H  H0  1  0.18612759  0.32459355  0.87505083  1
  H  H1  1  0.31458234  0.27912830  0.89475051  1
  H  H2  1  0.20596804  0.19599656  0.90084970  1
  H  H3  1  0.24698335  0.04752550  0.82960362  1
  H  H4  1  0.25260725  0.97737674  0.71326705  1
  H  H5  1  0.25106248  0.01279256  0.59320377  1
  H  H6  1  0.24949787  0.04812550  0.47339908  1
  H  H7  1  0.24852788  0.08352202  0.35333828  1
  H  H8  1  0.25127951  0.11927180  0.23303182  1
  H  H9  1  0.31317197  0.17543691  0.12466087  1
  H  H10  1  0.18437046  0.22033823  0.10552035  1
  H  H11  1  0.29249275  0.30394130  0.09888253  1
  H  H12  1  0.25262177  0.45233148  0.17039475  1
  H  H13  1  0.24745158  0.52249021  0.28671381  1
  H  H14  1  0.24894001  0.48710418  0.40677053  1
  H  H15  1  0.25046827  0.45178683  0.52659142  1
  H  H16  1  0.25147951  0.41636383  0.64666724  1
  H  H17  1  0.24859215  0.38057772  0.76694249  1
  H  H18  1  0.33322815  0.79492205  0.87973432  1
  H  H19  1  0.28852261  0.66458843  0.88175883  1
  H  H20  1  0.20645225  0.76848546  0.90573192  1
  H  H21  1  0.05101425  0.74965900  0.83077955  1
  H  H22  1  0.97901878  0.75175672  0.71458787  1
  H  H23  1  0.01316396  0.75052756  0.59365457  1
  H  H24  1  0.04817891  0.74968004  0.47364429  1
  H  H25  1  0.08314768  0.74954323  0.35382987  1
  H  H26  1  0.11758741  0.75132952  0.23419472  1
  H  H27  1  0.16728954  0.70412573  0.12031119  1
  H  H28  1  0.21083604  0.83490296  0.11837561  1
  H  H29  1  0.29417794  0.73212976  0.09444836  1
  H  H30  1  0.44899632  0.75027371  0.16948270  1
  H  H31  1  0.52089547  0.74828528  0.28565084  1
  H  H32  1  0.48671015  0.74946250  0.40651598  1
  H  H33  1  0.45168958  0.75033597  0.52650578  1
  H  H34  1  0.41673707  0.75056445  0.64631418  1
  H  H35  1  0.38235419  0.74884044  0.76590933  1
  H  H36  1  0.67858723  0.31742546  0.12443987  1
  H  H37  1  0.71982662  0.18654354  0.10535603  1
  H  H38  1  0.80600026  0.29275045  0.09929199  1
  H  H39  1  0.95244048  0.25272307  0.17082626  1
  H  H40  1  0.02222307  0.24700259  0.28721193  1
  H  H41  1  0.98677345  0.24868545  0.40692655  1
  H  H42  1  0.95168650  0.25049739  0.52664881  1
  H  H43  1  0.91643983  0.25153944  0.64670346  1
  H  H44  1  0.88054792  0.24779131  0.76718316  1
  H  H45  1  0.82142266  0.18215660  0.87545472  1
  H  H46  1  0.77988328  0.31283766  0.89494038  1
  H  H47  1  0.69392302  0.20637198  0.90064012  1
  H  H48  1  0.54745408  0.24698375  0.82928819  1
  H  H49  1  0.47766624  0.25298153  0.71289062  1
  H  H50  1  0.51314194  0.25133032  0.59316551  1
  H  H51  1  0.54824497  0.24957798  0.47345658  1
  H  H52  1  0.58347059  0.24862723  0.35341729  1
  H  H53  1  0.61934703  0.25230516  0.23291019  1
  H  H54  1  0.70507514  0.66828566  0.11948780  1
  H  H55  1  0.83652440  0.71103808  0.11877219  1
  H  H56  1  0.73406060  0.79498095  0.09450578  1
  H  H57  1  0.75118676  0.94905175  0.16951156  1
  H  H58  1  0.74848893  0.02083793  0.28566473  1
  H  H59  1  0.74939069  0.98666724  0.40627451  1
  H  H60  1  0.75044490  0.95190597  0.52622791  1
  H  H61  1  0.75104783  0.91717166  0.64604494  1
  H  H62  1  0.74937977  0.88282203  0.76588798  1
  H  H63  1  0.79368510  0.83192114  0.88044037  1
  H  H64  1  0.66239617  0.78877956  0.88081093  1
  H  H65  1  0.76537555  0.70540503  0.90548013  1
  H  H66  1  0.74856635  0.55093023  0.83052770  1
  H  H67  1  0.75163663  0.47906860  0.71436010  1
  H  H68  1  0.75068587  0.51321610  0.59370342  1
  H  H69  1  0.74961681  0.54798640  0.47374536  1
  H  H70  1  0.74905584  0.58271800  0.35392365  1
  H  H71  1  0.75055983  0.61709486  0.23402725  1
  Pb  Pb72  1  0.99742561  0.99980343  0.00471238  1
  Pb  Pb73  1  0.01079310  0.50193850  0.99749175  1
  Pb  Pb74  1  0.49344993  -0.00017718  0.00198117  1
  Pb  Pb75  1  0.50611196  0.50239954  0.99400054  1
  C  C76  1  0.24576577  0.21820376  0.80287730  1
  C  C77  1  0.24786357  0.10347558  0.78891431  1
  C  C78  1  0.25096977  0.06520226  0.72439214  1
  C  C79  1  0.25132931  0.13840507  0.67079599  1
  C  C80  1  0.25128163  0.10085564  0.60463960  1
  C  C81  1  0.25070662  0.17355347  0.55180210  1
  C  C82  1  0.24970913  0.13616617  0.48495387  1
  C  C83  1  0.24903305  0.20863610  0.43259660  1
  C  C84  1  0.24853665  0.17142747  0.36519806  1
  C  C85  1  0.24890710  0.24412450  0.31369870  1
  C  C86  1  0.25105648  0.20675366  0.24556744  1
  C  C87  1  0.25383933  0.28161922  0.19708488  1
  C  C88  1  0.25184074  0.39635691  0.21106715  1
  C  C89  1  0.24899520  0.43465493  0.27559509  1
  C  C90  1  0.24870542  0.36146920  0.32919412  1
  C  C91  1  0.24874313  0.39904233  0.39534795  1
  C  C92  1  0.24930103  0.32635352  0.44819094  1
  C  C93  1  0.25027835  0.36374434  0.51503742  1
  C  C94  1  0.25097721  0.29127213  0.56739483  1
  C  C95  1  0.25150213  0.32846279  0.63479881  1
  C  C96  1  0.25113273  0.25574670  0.68629058  1
  C  C97  1  0.24883993  0.29310334  0.75441330  1
  C  C98  1  0.22116607  0.74870498  0.80291475  1
  C  C99  1  0.10626478  0.74965555  0.78975350  1
  C  C100  1  0.06696657  0.75068783  0.72525145  1
  C  C101  1  0.13911650  0.75022538  0.67112242  1
  C  C102  1  0.10117651  0.75038268  0.60501725  1
  C  C103  1  0.17360848  0.75012080  0.55203644  1
  C  C104  1  0.13614703  0.74981862  0.48525794  1
  C  C105  1  0.20849935  0.74976570  0.43289858  1
  C  C106  1  0.17101390  0.74979738  0.36565904  1
  C  C107  1  0.24340348  0.75029981  0.31412208  1
  C  C108  1  0.20510297  0.75116540  0.24626623  1
  C  C109  1  0.27880731  0.75127292  0.19723101  1
  C  C110  1  0.39369045  0.75030654  0.21046406  1
  C  C111  1  0.43295519  0.74934535  0.27496642  1
  C  C112  1  0.36076228  0.74982962  0.32906342  1
  C  C113  1  0.39869216  0.74964066  0.39516072  1
  C  C114  1  0.32625482  0.74990082  0.44812626  1
  C  C115  1  0.36371944  0.75020289  0.51490085  1
  C  C116  1  0.29136707  0.75027990  0.56725565  1
  C  C117  1  0.32887120  0.75029869  0.63448883  1
  C  C118  1  0.25648631  0.74981488  0.68602584  1
  C  C119  1  0.29482586  0.74896645  0.75386748  1
  C  C120  1  0.78185227  0.25453465  0.19724749  1
  C  C121  1  0.89641688  0.25208034  0.21141651  1
  C  C122  1  0.93450454  0.24887377  0.27594419  1
  C  C123  1  0.86118208  0.24858543  0.32936980  1
  C  C124  1  0.89876986  0.24855646  0.39550836  1
  C  C125  1  0.82619272  0.24923655  0.44830640  1
  C  C126  1  0.86369162  0.25031667  0.51512996  1
  C  C127  1  0.79134425  0.25110265  0.56747462  1
  C  C128  1  0.82857835  0.25159915  0.63487952  1
  C  C129  1  0.75596767  0.25116537  0.68636719  1
  C  C130  1  0.79312737  0.24842388  0.75455513  1
  C  C131  1  0.71803313  0.24528034  0.80284146  1
  C  C132  1  0.60345536  0.24772518  0.78868603  1
  C  C133  1  0.56537641  0.25109629  0.72415463  1
  C  C134  1  0.63871357  0.25149057  0.67073601  1
  C  C135  1  0.60114186  0.25150908  0.60459793  1
  C  C136  1  0.67373212  0.25085077  0.55180321  1
  C  C137  1  0.63623493  0.24977430  0.48497886  1
  C  C138  1  0.70858316  0.24900813  0.43263353  1
  C  C139  1  0.67133208  0.24855866  0.36523119  1
  C  C140  1  0.74392996  0.24897816  0.31373951  1
  C  C141  1  0.70675719  0.25165364  0.24555051  1
  C  C142  1  0.75156222  0.77867344  0.19719983  1
  C  C143  1  0.75085614  0.89362278  0.21046124  1
  C  C144  1  0.74950919  0.93285148  0.27492055  1
  C  C145  1  0.74961103  0.86048753  0.32894745  1
  C  C146  1  0.74945460  0.89857039  0.39499966  1
  C  C147  1  0.74976780  0.82617547  0.44800179  1
  C  C148  1  0.75027722  0.86385139  0.51472936  1
  C  C149  1  0.75053617  0.79154906  0.56713626  1
  C  C150  1  0.75074665  0.82921062  0.63434031  1
  C  C151  1  0.75022542  0.75687596  0.68593828  1
  C  C152  1  0.74910541  0.79519371  0.75378928  1
  C  C153  1  0.74815015  0.72125691  0.80273240  1
  C  C154  1  0.74894826  0.60630225  0.78953847  1
  C  C155  1  0.75052149  0.56705281  0.72508914  1
  C  C156  1  0.75047403  0.63939344  0.67103831  1
  C  C157  1  0.75063881  0.60131437  0.60498390  1
  C  C158  1  0.75031853  0.67370944  0.55197650  1
  C  C159  1  0.74980027  0.63603759  0.48524391  1
  C  C160  1  0.74956070  0.70834210  0.43283119  1
  C  C161  1  0.74936839  0.67067966  0.36562174  1
  C  C162  1  0.74986775  0.74301417  0.31401599  1
  C  C163  1  0.75085297  0.70472597  0.24613869  1
  I  I164  1  0.24102540  0.99584396  0.96715761  1
  I  I165  1  0.26240522  0.50116131  0.03296339  1
  I  I166  1  0.74687232  0.01137298  0.03499760  1
  I  I167  1  0.75664053  0.48641819  0.96552667  1
  I  I168  1  0.00757319  0.25478548  0.03524823  1
  I  I169  1  0.99109475  0.74870120  0.96749316  1
  I  I170  1  0.49032958  0.24733193  0.96492181  1
  I  I171  1  0.50421498  0.75300144  0.03306550  1
  I  I172  1  0.93120833  0.02247851  0.84804563  1
  I  I173  1  0.05937928  0.97231605  0.15548346  1
  I  I174  1  0.03776525  0.44725929  0.84445067  1
  I  I175  1  0.98565302  0.57491632  0.15135953  1
  I  I176  1  0.51530722  0.92547735  0.84812959  1
  I  I177  1  0.46332789  0.05405247  0.15472207  1
  I  I178  1  0.44165626  0.52863346  0.84357300  1
  I  I179  1  0.57007371  0.47861470  0.15101342  1
  N  N180  1  0.23798269  0.25713107  0.87250286  1
  N  N181  1  0.26107887  0.24266003  0.12741660  1
  N  N182  1  0.26349329  0.74381872  0.87214532  1
  N  N183  1  0.23659647  0.75586361  0.12796205  1
  N  N184  1  0.74372302  0.26281720  0.12751118  1
  N  N185  1  0.75612981  0.23662392  0.87253347  1
  N  N186  1  0.75709309  0.73693924  0.12789824  1
  N  N187  1  0.74202927  0.76308861  0.87194887  1
