# generated using pymatgen
data_H22PbC20S4(I2N)2
_symmetry_space_group_name_H-M   'P 1'
_cell_length_a   12.58363085
_cell_length_b   12.57708534
_cell_length_c   25.78872169
_cell_angle_alpha   91.37175789
_cell_angle_beta   91.39321369
_cell_angle_gamma   89.02119265
_symmetry_Int_Tables_number   1
_chemical_formula_structural   H22PbC20S4(I2N)2
_chemical_formula_sum   'H88 Pb4 C80 S16 I16 N8'
_cell_volume   4078.53041456
_cell_formula_units_Z   4
loop_
 _symmetry_equiv_pos_site_id
 _symmetry_equiv_pos_as_xyz
  1  'x, y, z'
loop_
 _atom_site_type_symbol
 _atom_site_label
 _atom_site_symmetry_multiplicity
 _atom_site_fract_x
 _atom_site_fract_y
 _atom_site_fract_z
 _atom_site_occupancy
  H  H0  1  0.11835298  0.28229345  0.91366982  1
  H  H1  1  0.22074073  0.19795874  0.92647572  1
  H  H2  1  0.24080912  0.32719166  0.91656207  1
  H  H3  1  0.16543900  0.30796446  0.82781204  1
  H  H4  1  0.15394646  0.16930103  0.83909039  1
  H  H5  1  0.36513075  0.29151613  0.84182390  1
  H  H6  1  0.35300549  0.15297504  0.85152899  1
  H  H7  1  0.32814245  0.02586027  0.76930983  1
  H  H8  1  0.33216600  0.03831527  0.66752425  1
  H  H9  1  0.33191316  0.42186779  0.63358086  1
  H  H10  1  0.33969093  0.43473059  0.53287706  1
  H  H11  1  0.35399061  0.06413810  0.46854197  1
  H  H12  1  0.35767729  0.07484047  0.36712494  1
  H  H13  1  0.37613224  0.45238124  0.33152001  1
  H  H14  1  0.36916234  0.46442476  0.22983471  1
  H  H15  1  0.36759661  0.33784762  0.14823947  1
  H  H16  1  0.36239323  0.19850333  0.15670694  1
  H  H17  1  0.17047554  0.35513798  0.16081031  1
  H  H18  1  0.16384342  0.21577297  0.17200465  1
  H  H19  1  0.22485377  0.18295033  0.08381319  1
  H  H20  1  0.22870669  0.31440159  0.07368584  1
  H  H21  1  0.11399983  0.25577898  0.08422541  1
  H  H22  1  0.27465347  0.88283052  0.91720607  1
  H  H23  1  0.19760827  0.77826129  0.92658087  1
  H  H24  1  0.32816994  0.76195945  0.91651208  1
  H  H25  1  0.30751350  0.83196907  0.82943667  1
  H  H26  1  0.16789283  0.84533395  0.83999911  1
  H  H27  1  0.29545721  0.63323682  0.84215884  1
  H  H28  1  0.15629175  0.64719420  0.85015220  1
  H  H29  1  0.03277470  0.66464049  0.76843346  1
  H  H30  1  0.04572990  0.66107405  0.66685902  1
  H  H31  1  0.42672898  0.66674457  0.63226263  1
  H  H32  1  0.43742192  0.66002479  0.53079301  1
  H  H33  1  0.06758960  0.64270307  0.46616726  1
  H  H34  1  0.08049098  0.64303778  0.36522630  1
  H  H35  1  0.46212615  0.64531977  0.33117175  1
  H  H36  1  0.47465123  0.65255873  0.22948757  1
  H  H37  1  0.34195965  0.63381020  0.14715653  1
  H  H38  1  0.20305722  0.64068144  0.15774593  1
  H  H39  1  0.35436010  0.83209989  0.16098303  1
  H  H40  1  0.21540303  0.84063526  0.17282283  1
  H  H41  1  0.18367141  0.77328865  0.08345308  1
  H  H42  1  0.31488120  0.77084287  0.07345226  1
  H  H43  1  0.25058462  0.88526982  0.08648831  1
  H  H44  1  0.71751392  0.38062471  0.08598263  1
  H  H45  1  0.80207726  0.27846610  0.07366456  1
  H  H46  1  0.67288247  0.25807577  0.08344624  1
  H  H47  1  0.69152428  0.33421753  0.17209286  1
  H  H48  1  0.83010624  0.34612356  0.16095226  1
  H  H49  1  0.70859262  0.13449856  0.15840093  1
  H  H50  1  0.84706679  0.14696517  0.14873039  1
  H  H51  1  0.97391798  0.16792970  0.23050115  1
  H  H52  1  0.96203858  0.16473115  0.33238289  1
  H  H53  1  0.57904994  0.16920285  0.36634056  1
  H  H54  1  0.56581926  0.16048085  0.46695913  1
  H  H55  1  0.93525671  0.14676226  0.53260418  1
  H  H56  1  0.92203771  0.14257760  0.63389626  1
  H  H57  1  0.54314133  0.12415804  0.66825233  1
  H  H58  1  0.53117938  0.13092460  0.76989135  1
  H  H59  1  0.65949384  0.13150798  0.85176072  1
  H  H60  1  0.79858545  0.13545675  0.84248647  1
  H  H61  1  0.64410634  0.32913620  0.83957503  1
  H  H62  1  0.78320201  0.33432229  0.82782588  1
  H  H63  1  0.81689194  0.27155575  0.91566908  1
  H  H64  1  0.68574214  0.26879630  0.92635429  1
  H  H65  1  0.74528058  0.38312152  0.91614093  1
  H  H66  1  0.62026049  0.72458383  0.08241930  1
  H  H67  1  0.72429886  0.80222341  0.07327477  1
  H  H68  1  0.74144693  0.67197093  0.08404518  1
  H  H69  1  0.66997554  0.69344254  0.17070002  1
  H  H70  1  0.65530489  0.83275668  0.15953165  1
  H  H71  1  0.86845512  0.70720328  0.15852481  1
  H  H72  1  0.85345726  0.84611573  0.14972382  1
  H  H73  1  0.83773030  0.97109661  0.23161184  1
  H  H74  1  0.84103674  0.95834227  0.33316006  1
  H  H75  1  0.83310331  0.57608038  0.36679439  1
  H  H76  1  0.83935929  0.56298799  0.46816568  1
  H  H77  1  0.85697599  0.93189153  0.53399468  1
  H  H78  1  0.85579665  0.91843707  0.63488267  1
  H  H79  1  0.85994671  0.53757390  0.66912223  1
  H  H80  1  0.85342594  0.52570020  0.77093017  1
  H  H81  1  0.86608558  0.65788563  0.85263817  1
  H  H82  1  0.85959671  0.79688954  0.84199810  1
  H  H83  1  0.66791612  0.64601848  0.83901071  1
  H  H84  1  0.65962660  0.78500337  0.82706559  1
  H  H85  1  0.72779086  0.81680578  0.91636659  1
  H  H86  1  0.72983855  0.68550706  0.92639304  1
  H  H87  1  0.61571323  0.75010026  0.91369244  1
  Pb  Pb88  1  0.99780665  0.99785176  0.99944381  1
  Pb  Pb89  1  0.00113266  0.50497960  0.00154401  1
  Pb  Pb90  1  0.50441118  0.00158183  0.00169007  1
  Pb  Pb91  1  0.49502186  0.49526130  0.99784493  1
  C  C92  1  0.20269556  0.23961287  0.84718261  1
  C  C93  1  0.31753729  0.22121710  0.83091107  1
  C  C94  1  0.32216292  0.19821096  0.77374193  1
  C  C95  1  0.32512316  0.10027092  0.74850876  1
  C  C96  1  0.32754837  0.10718098  0.69384800  1
  C  C97  1  0.32597594  0.21114111  0.67675928  1
  C  C98  1  0.32995559  0.24892019  0.62449086  1
  C  C99  1  0.33281658  0.35270617  0.60736133  1
  C  C100  1  0.33701106  0.35972186  0.55300606  1
  C  C101  1  0.33758495  0.26133244  0.52731854  1
  C  C102  1  0.34097190  0.23717784  0.47258738  1
  C  C103  1  0.34857209  0.13824281  0.44759004  1
  C  C104  1  0.35024662  0.14391479  0.39312025  1
  C  C105  1  0.34398982  0.24715661  0.37528640  1
  C  C106  1  0.34479979  0.28323644  0.32266170  1
  C  C107  1  0.36110462  0.38497489  0.30533298  1
  C  C108  1  0.35765628  0.39149589  0.25066320  1
  C  C109  1  0.33914861  0.29541954  0.22564453  1
  C  C110  1  0.32566985  0.27529871  0.16847101  1
  C  C111  1  0.20792143  0.27728246  0.15257833  1
  C  C112  1  0.23939194  0.79660807  0.84797345  1
  C  C113  1  0.22467548  0.68076641  0.83063783  1
  C  C114  1  0.20434525  0.67285220  0.77332997  1
  C  C115  1  0.10707704  0.66783110  0.74791848  1
  C  C116  1  0.11420212  0.66584650  0.69329957  1
  C  C117  1  0.21768044  0.66975348  0.67638913  1
  C  C118  1  0.25410197  0.66739467  0.62384607  1
  C  C119  1  0.35743892  0.66583605  0.60614362  1
  C  C120  1  0.36318505  0.66225609  0.55164988  1
  C  C121  1  0.26420276  0.66109175  0.52651609  1
  C  C122  1  0.24003919  0.65822180  0.47173837  1
  C  C123  1  0.14215688  0.64938997  0.44600082  1
  C  C124  1  0.14911654  0.64995442  0.39157028  1
  C  C125  1  0.25230635  0.65948102  0.37449548  1
  C  C126  1  0.29004805  0.66330323  0.32224283  1
  C  C127  1  0.39375389  0.65642734  0.30502070  1
  C  C128  1  0.40060714  0.66038897  0.25040682  1
  C  C129  1  0.30277609  0.66982820  0.22540497  1
  C  C130  1  0.27948797  0.67795547  0.16836211  1
  C  C131  1  0.27750556  0.79443053  0.15285450  1
  C  C132  1  0.76002683  0.29710465  0.15282753  1
  C  C133  1  0.77872600  0.18238847  0.16925497  1
  C  C134  1  0.80184536  0.17824543  0.22640362  1
  C  C135  1  0.89983297  0.17317633  0.25147199  1
  C  C136  1  0.89322229  0.17118018  0.30614482  1
  C  C137  1  0.78946657  0.17516442  0.32337606  1
  C  C138  1  0.75186272  0.17109533  0.37564513  1
  C  C139  1  0.64806435  0.16808136  0.39262676  1
  C  C140  1  0.64085344  0.16331678  0.44692418  1
  C  C141  1  0.73904983  0.16238191  0.47273185  1
  C  C142  1  0.76228874  0.15850959  0.52751562  1
  C  C143  1  0.86060221  0.15136404  0.55308902  1
  C  C144  1  0.85353997  0.14937994  0.60749899  1
  C  C145  1  0.74979837  0.15496005  0.62469315  1
  C  C146  1  0.71266833  0.15432271  0.67712114  1
  C  C147  1  0.61074407  0.13880442  0.69440527  1
  C  C148  1  0.60419932  0.14225201  0.74911325  1
  C  C149  1  0.70047365  0.16008101  0.77412307  1
  C  C150  1  0.72186034  0.17297884  0.83121043  1
  C  C151  1  0.72160329  0.29061775  0.84737676  1
  C  C152  1  0.70489688  0.76164651  0.15200278  1
  C  C153  1  0.82031691  0.77792497  0.16957693  1
  C  C154  1  0.82780593  0.79938884  0.22679119  1
  C  C155  1  0.83367252  0.89678409  0.25213592  1
  C  C156  1  0.83558882  0.88970815  0.30680202  1
  C  C157  1  0.83088069  0.78615959  0.32374754  1
  C  C158  1  0.83307531  0.74871838  0.37612255  1
  C  C159  1  0.83426470  0.64482826  0.39325753  1
  C  C160  1  0.83761518  0.63775186  0.44771030  1
  C  C161  1  0.83897895  0.73621967  0.47335196  1
  C  C162  1  0.84141793  0.75945200  0.52818905  1
  C  C163  1  0.85004115  0.85722606  0.55405811  1
  C  C164  1  0.84894848  0.84997787  0.60844651  1
  C  C165  1  0.83915268  0.74665031  0.62535925  1
  C  C166  1  0.83544130  0.70899797  0.67762755  1
  C  C167  1  0.84600152  0.60565793  0.69510863  1
  C  C168  1  0.84249699  0.59915129  0.74974558  1
  C  C169  1  0.82977830  0.69694108  0.77447119  1
  C  C170  1  0.82202534  0.72050926  0.83146767  1
  C  C171  1  0.70573530  0.72284158  0.84706912  1
  S  S172  1  0.32468482  0.19593187  0.27007478  1
  S  S173  1  0.33472355  0.33744753  0.42720369  1
  S  S174  1  0.33216716  0.15984891  0.57186719  1
  S  S175  1  0.32144613  0.29958682  0.72955391  1
  S  S176  1  0.20187145  0.67535197  0.26974143  1
  S  S177  1  0.34081220  0.66833034  0.42718677  1
  S  S178  1  0.16371804  0.66503217  0.57170546  1
  S  S179  1  0.30607030  0.67601259  0.72934501  1
  S  S180  1  0.79995448  0.17381704  0.72972135  1
  S  S181  1  0.66089073  0.16381733  0.57226128  1
  S  S182  1  0.84073563  0.16819992  0.42836209  1
  S  S183  1  0.70072253  0.18172850  0.27073419  1
  S  S184  1  0.82029404  0.79735068  0.72986783  1
  S  S185  1  0.83078277  0.65834218  0.57255704  1
  S  S186  1  0.83557089  0.83781932  0.42871788  1
  S  S187  1  0.82385894  0.69781765  0.27082209  1
  I  I188  1  0.25332447  0.05363539  0.99372125  1
  I  I189  1  0.25230565  0.45425681  0.00824300  1
  I  I190  1  0.75387559  0.93886512  0.00459903  1
  I  I191  1  0.75092171  0.54270161  0.99276787  1
  I  I192  1  0.94703770  0.24907237  0.00744606  1
  I  I193  1  0.06014273  0.74787223  0.99382921  1
  I  I194  1  0.54813468  0.24532480  0.99320725  1
  I  I195  1  0.45711329  0.74599611  0.00638268  1
  I  I196  1  0.99747883  0.00531226  0.87759539  1
  I  I197  1  0.04601825  0.00593543  0.12306094  1
  I  I198  1  0.99151634  0.45689683  0.87781040  1
  I  I199  1  0.99030086  0.50695647  0.12315233  1
  I  I200  1  0.49722367  0.95737430  0.87790488  1
  I  I201  1  0.49956105  0.00634459  0.12347572  1
  I  I202  1  0.48956362  0.50542784  0.87639118  1
  I  I203  1  0.53990466  0.50511738  0.12159081  1
  N  N204  1  0.19606208  0.26263063  0.90437299  1
  N  N205  1  0.19353634  0.25604263  0.09544004  1
  N  N206  1  0.26109782  0.80497522  0.90528503  1
  N  N207  1  0.25525299  0.80583663  0.09583345  1
  N  N208  1  0.73723963  0.30314494  0.09565181  1
  N  N209  1  0.74398965  0.30378633  0.90447758  1
  N  N210  1  0.69773940  0.73890748  0.09475132  1
  N  N211  1  0.69489976  0.74527818  0.90403759  1
