# generated using pymatgen
data_H22PbC24(I2N)2
_symmetry_space_group_name_H-M   'P 1'
_cell_length_a   12.40855596
_cell_length_b   12.42046485
_cell_length_c   22.09844737
_cell_angle_alpha   93.09676709
_cell_angle_beta   91.97442621
_cell_angle_gamma   91.32927408
_symmetry_Int_Tables_number   1
_chemical_formula_structural   H22PbC24(I2N)2
_chemical_formula_sum   'H88 Pb4 C96 I16 N8'
_cell_volume   3397.74918832
_cell_formula_units_Z   4
loop_
 _symmetry_equiv_pos_site_id
 _symmetry_equiv_pos_as_xyz
  1  'x, y, z'
loop_
 _atom_site_type_symbol
 _atom_site_label
 _atom_site_symmetry_multiplicity
 _atom_site_fract_x
 _atom_site_fract_y
 _atom_site_fract_z
 _atom_site_occupancy
  H  H0  1  0.25453777  0.30341787  0.91767686  1
  H  H1  1  0.32498408  0.31780310  0.85531033  1
  H  H2  1  0.30250186  0.19421072  0.88263144  1
  H  H3  1  0.12620782  0.33285670  0.84106800  1
  H  H4  1  0.11427015  0.19589407  0.86121931  1
  H  H5  1  0.17648045  0.04664245  0.79368588  1
  H  H6  1  0.20039217  0.98002256  0.68813815  1
  H  H7  1  0.22745548  0.01540092  0.58139822  1
  H  H8  1  0.25812217  0.05130169  0.47465048  1
  H  H9  1  0.28881623  0.08731279  0.36761236  1
  H  H10  1  0.31686907  0.12440519  0.25967353  1
  H  H11  1  0.38573036  0.30411755  0.13879623  1
  H  H12  1  0.37378681  0.16715593  0.15894780  1
  H  H13  1  0.17501313  0.18220773  0.14468736  1
  H  H14  1  0.24547910  0.19658911  0.08232655  1
  H  H15  1  0.19750763  0.30579779  0.11736447  1
  H  H16  1  0.32349760  0.45336973  0.20632316  1
  H  H17  1  0.29956546  0.51999343  0.31186877  1
  H  H18  1  0.27248996  0.48460884  0.41860610  1
  H  H19  1  0.24181847  0.44871071  0.52535551  1
  H  H20  1  0.21113500  0.41270191  0.63239365  1
  H  H21  1  0.18309980  0.37560516  0.74033502  1
  H  H22  1  0.28646367  0.73835335  0.91766607  1
  H  H23  1  0.31164595  0.67517810  0.85166842  1
  H  H24  1  0.18422736  0.68180143  0.87347026  1
  H  H25  1  0.32568153  0.87136881  0.84760775  1
  H  H26  1  0.18748184  0.87707636  0.86769846  1
  H  H27  1  0.04193851  0.81480106  0.79730454  1
  H  H28  1  0.97752597  0.79087166  0.69037748  1
  H  H29  1  0.01459486  0.76822622  0.58308445  1
  H  H30  1  0.05126613  0.74265940  0.47491532  1
  H  H31  1  0.08826717  0.71670004  0.36602575  1
  H  H32  1  0.12745995  0.68908083  0.25628830  1
  H  H33  1  0.31251189  0.62293462  0.13231471  1
  H  H34  1  0.17431049  0.62862521  0.15240199  1
  H  H35  1  0.18831002  0.82481457  0.14832539  1
  H  H36  1  0.21351832  0.76162686  0.08233354  1
  H  H37  1  0.31573448  0.81820513  0.12653200  1
  H  H38  1  0.45804450  0.68521630  0.20270713  1
  H  H39  1  0.52244728  0.70916229  0.30962694  1
  H  H40  1  0.48539110  0.73183114  0.41692128  1
  H  H41  1  0.44871672  0.75739747  0.52509123  1
  H  H42  1  0.41171803  0.78334701  0.63398495  1
  H  H43  1  0.37252878  0.81094636  0.74372068  1
  H  H44  1  0.71454810  0.23818432  0.08239298  1
  H  H45  1  0.69925598  0.17150844  0.14517311  1
  H  H46  1  0.82289747  0.19241899  0.11934373  1
  H  H47  1  0.67821565  0.36843350  0.15953871  1
  H  H48  1  0.81509909  0.38337731  0.13972513  1
  H  H49  1  0.96424787  0.32153810  0.20686927  1
  H  H50  1  0.02827365  0.29769151  0.31229535  1
  H  H51  1  0.98781969  0.27174887  0.41909817  1
  H  H52  1  0.94798670  0.24191777  0.52540600  1
  H  H53  1  0.90784707  0.21116224  0.63213283  1
  H  H54  1  0.86679233  0.18334771  0.73943193  1
  H  H55  1  0.68489954  0.11661833  0.86026130  1
  H  H56  1  0.82178404  0.13157594  0.84045145  1
  H  H57  1  0.80072700  0.32849805  0.85482619  1
  H  H58  1  0.78544167  0.26180869  0.91760244  1
  H  H59  1  0.67708718  0.30757051  0.88065409  1
  H  H60  1  0.53575128  0.17847549  0.79312356  1
  H  H61  1  0.47172308  0.20234984  0.68769752  1
  H  H62  1  0.51218882  0.22831305  0.58089785  1
  H  H63  1  0.55201966  0.25815392  0.47459038  1
  H  H64  1  0.59215209  0.28889199  0.36786390  1
  H  H65  1  0.63320943  0.31668033  0.26056144  1
  H  H66  1  0.75324990  0.71122754  0.07955208  1
  H  H67  1  0.82888583  0.69358024  0.14167343  1
  H  H68  1  0.80665897  0.81906936  0.11784408  1
  H  H69  1  0.63271335  0.67099037  0.15501170  1
  H  H70  1  0.61748250  0.80715732  0.13556649  1
  H  H71  1  0.68322227  0.95924480  0.20500510  1
  H  H72  1  0.70624498  0.02562721  0.31223688  1
  H  H73  1  0.72899710  0.98688059  0.42047062  1
  H  H74  1  0.75425619  0.94828242  0.52825971  1
  H  H75  1  0.77648305  0.90938054  0.63632789  1
  H  H76  1  0.79990858  0.87031061  0.74435188  1
  H  H77  1  0.88252361  0.69285184  0.86441931  1
  H  H78  1  0.86729753  0.82901597  0.84497099  1
  H  H79  1  0.67113117  0.80645384  0.85832724  1
  H  H80  1  0.74677934  0.78879014  0.92044264  1
  H  H81  1  0.69334657  0.68096071  0.88215199  1
  H  H82  1  0.81676105  0.54076276  0.79498718  1
  H  H83  1  0.79370812  0.47437417  0.68775778  1
  H  H84  1  0.77093581  0.51311788  0.57952335  1
  H  H85  1  0.74568099  0.55171402  0.47173284  1
  H  H86  1  0.72347814  0.59062088  0.36366258  1
  H  H87  1  0.70007805  0.62969302  0.25563627  1
  Pb  Pb88  1  0.00357789  0.00703949  0.01111364  1
  Pb  Pb89  1  0.00298209  0.51074768  0.00204190  1
  Pb  Pb90  1  0.49700808  0.98920068  0.99796677  1
  Pb  Pb91  1  0.49645798  0.49294859  0.98889529  1
  C  C92  1  0.16427880  0.25403692  0.83807584  1
  C  C93  1  0.18085915  0.21656864  0.77349367  1
  C  C94  1  0.18608266  0.10329952  0.75814329  1
  C  C95  1  0.19844817  0.06616697  0.69956228  1
  C  C96  1  0.20879643  0.13880857  0.65198833  1
  C  C97  1  0.22417128  0.10210545  0.59233617  1
  C  C98  1  0.23687655  0.17427451  0.54564224  1
  C  C99  1  0.25464197  0.13799109  0.48559911  1
  C  C100  1  0.26790533  0.20995002  0.43938386  1
  C  C101  1  0.28515730  0.17392164  0.37871569  1
  C  C102  1  0.29610465  0.24591798  0.33293567  1
  C  C103  1  0.31133664  0.21074716  0.27109762  1
  C  C104  1  0.31911805  0.28344621  0.22651486  1
  C  C105  1  0.33571488  0.24597566  0.16193304  1
  C  C106  1  0.31388748  0.39671749  0.24186501  1
  C  C107  1  0.30150981  0.43385050  0.30044592  1
  C  C108  1  0.29115894  0.36120307  0.34801697  1
  C  C109  1  0.27577611  0.39790691  0.40766932  1
  C  C110  1  0.26306929  0.32573509  0.45436237  1
  C  C111  1  0.24530142  0.36201925  0.51440821  1
  C  C112  1  0.23203719  0.29006566  0.56062062  1
  C  C113  1  0.21479256  0.32609106  0.62128893  1
  C  C114  1  0.20385276  0.25409374  0.66707039  1
  C  C115  1  0.18863171  0.28926437  0.72891080  1
  C  C116  1  0.24657416  0.82991276  0.84232974  1
  C  C117  1  0.21200043  0.81154966  0.77679803  1
  C  C118  1  0.09903970  0.80522706  0.76121620  1
  C  C119  1  0.06335175  0.79254502  0.70214275  1
  C  C120  1  0.13724513  0.78244959  0.65426832  1
  C  C121  1  0.10121332  0.77018154  0.59397124  1
  C  C122  1  0.17399072  0.76008523  0.54649435  1
  C  C123  1  0.13796319  0.74582088  0.48564836  1
  C  C124  1  0.21035136  0.73559229  0.43847360  1
  C  C125  1  0.17484608  0.72132010  0.37697770  1
  C  C126  1  0.24761080  0.71305551  0.33046693  1
  C  C127  1  0.21368543  0.69710902  0.26792064  1
  C  C128  1  0.28798773  0.68847226  0.22320861  1
  C  C129  1  0.25341287  0.67009251  0.15767534  1
  C  C130  1  0.40094528  0.69479682  0.23878798  1
  C  C131  1  0.43664762  0.70749061  0.29786242  1
  C  C132  1  0.36272791  0.71759500  0.34573981  1
  C  C133  1  0.39877057  0.72987107  0.40603498  1
  C  C134  1  0.32599234  0.73997148  0.45351342  1
  C  C135  1  0.36202316  0.75423345  0.51435610  1
  C  C136  1  0.28963352  0.76445939  0.56153683  1
  C  C137  1  0.32513784  0.77872332  0.62302338  1
  C  C138  1  0.25237747  0.78698546  0.66954409  1
  C  C139  1  0.28628578  0.80292149  0.73208526  1
  C  C140  1  0.75789193  0.33217132  0.16280059  1
  C  C141  1  0.79367151  0.31752188  0.22725962  1
  C  C142  1  0.90670623  0.31277055  0.24255851  1
  C  C143  1  0.94208450  0.30030994  0.30096616  1
  C  C144  1  0.86738460  0.29030397  0.34843598  1
  C  C145  1  0.90149715  0.27518562  0.40799044  1
  C  C146  1  0.82747728  0.26289787  0.45452852  1
  C  C147  1  0.86161610  0.24541931  0.51441061  1
  C  C148  1  0.78787301  0.23232413  0.56044502  1
  C  C149  1  0.82153906  0.21512714  0.62096595  1
  C  C150  1  0.74761319  0.20451340  0.66653885  1
  C  C151  1  0.78068408  0.18963009  0.72822772  1
  C  C152  1  0.70633151  0.18249592  0.77273370  1
  C  C153  1  0.74210404  0.16783362  0.83718876  1
  C  C154  1  0.59328890  0.18725148  0.75743185  1
  C  C155  1  0.55791669  0.19972688  0.69902742  1
  C  C156  1  0.63261854  0.20974185  0.65155721  1
  C  C157  1  0.59850495  0.22487556  0.59200498  1
  C  C158  1  0.67253271  0.23717533  0.54546981  1
  C  C159  1  0.63839176  0.25465554  0.48558508  1
  C  C160  1  0.71212856  0.26774343  0.43955136  1
  C  C161  1  0.67846390  0.28492779  0.37902965  1
  C  C162  1  0.75238784  0.29552846  0.33345376  1
  C  C163  1  0.71931644  0.31039815  0.27176537  1
  C  C164  1  0.67077628  0.75188814  0.15881332  1
  C  C165  1  0.69254096  0.78945818  0.22386415  1
  C  C166  1  0.69500709  0.90270609  0.24055616  1
  C  C167  1  0.70679061  0.93930905  0.29992710  1
  C  C168  1  0.71835576  0.86559287  0.34722874  1
  C  C169  1  0.72896526  0.90047182  0.40811288  1
  C  C170  1  0.73982388  0.82703717  0.45455856  1
  C  C171  1  0.75235770  0.86181022  0.51597045  1
  C  C172  1  0.76226593  0.78850499  0.56195525  1
  C  C173  1  0.77371475  0.82292151  0.62395271  1
  C  C174  1  0.78201119  0.74952298  0.66932773  1
  C  C175  1  0.79546138  0.78383401  0.73209012  1
  C  C176  1  0.80744636  0.71054629  0.77612620  1
  C  C177  1  0.82922927  0.74812329  0.84117511  1
  C  C178  1  0.80496780  0.59729793  0.75943491  1
  C  C179  1  0.79317149  0.56069418  0.70006693  1
  C  C180  1  0.78159939  0.63440775  0.65276328  1
  C  C181  1  0.77097248  0.59952758  0.59188126  1
  C  C182  1  0.76011695  0.67295842  0.54543369  1
  C  C183  1  0.74758408  0.63818822  0.48402098  1
  C  C184  1  0.73768228  0.71149350  0.43803717  1
  C  C185  1  0.72624427  0.67707784  0.37603758  1
  C  C186  1  0.71795283  0.75047729  0.33066310  1
  C  C187  1  0.70452116  0.71617134  0.26789862  1
  I  I188  1  0.25631218  0.07018185  0.98447696  1
  I  I189  1  0.24368862  0.42981358  0.01551920  1
  I  I190  1  0.75371401  0.93982302  0.01678980  1
  I  I191  1  0.74627910  0.56024883  0.98322412  1
  I  I192  1  0.93065441  0.25958344  0.00675994  1
  I  I193  1  0.07124037  0.76196626  0.99589344  1
  I  I194  1  0.56931205  0.24041200  0.99323634  1
  I  I195  1  0.42867923  0.73801213  0.00410698  1
  I  I196  1  0.98318923  0.00976917  0.87025828  1
  I  I197  1  0.03050070  0.02743460  0.15877358  1
  I  I198  1  0.03700293  0.52173468  0.85928536  1
  I  I199  1  0.96963917  0.55552599  0.14679373  1
  I  I200  1  0.53035672  0.94447352  0.85320814  1
  I  I201  1  0.46295647  0.97826030  0.14071957  1
  I  I202  1  0.46951796  0.47257096  0.84122843  1
  I  I203  1  0.51680259  0.49023854  0.12975151  1
  N  N204  1  0.26880847  0.26761349  0.87495158  1
  N  N205  1  0.23119687  0.23239608  0.12504971  1
  N  N206  1  0.25732140  0.72486608  0.87293863  1
  N  N207  1  0.24265016  0.77512924  0.12706110  1
  N  N208  1  0.74850883  0.22629676  0.12544902  1
  N  N209  1  0.75147888  0.27370315  0.87454704  1
  N  N210  1  0.77149231  0.74419772  0.12301746  1
  N  N211  1  0.72852320  0.75582763  0.87697813  1
