# generated using pymatgen
data_H18PbC10(IN)4
_symmetry_space_group_name_H-M   'P 1'
_cell_length_a   12.55551877
_cell_length_b   12.55366452
_cell_length_c   16.10754204
_cell_angle_alpha   89.96217479
_cell_angle_beta   89.96553559
_cell_angle_gamma   89.32856943
_symmetry_Int_Tables_number   1
_chemical_formula_structural   H18PbC10(IN)4
_chemical_formula_sum   'H72 Pb4 C40 I16 N16'
_cell_volume   2538.65953774
_cell_formula_units_Z   4
loop_
 _symmetry_equiv_pos_site_id
 _symmetry_equiv_pos_as_xyz
  1  'x, y, z'
loop_
 _atom_site_type_symbol
 _atom_site_label
 _atom_site_symmetry_multiplicity
 _atom_site_fract_x
 _atom_site_fract_y
 _atom_site_fract_z
 _atom_site_occupancy
  H  H0  1  0.26326348  0.19774697  0.88004187  1
  H  H1  1  0.13407938  0.22631782  0.88298159  1
  H  H2  1  0.22172115  0.32482891  0.87758321  1
  H  H3  1  0.18068161  0.15920248  0.74846053  1
  H  H4  1  0.13371844  0.29390303  0.74403945  1
  H  H5  1  0.32244713  0.35870791  0.73896482  1
  H  H6  1  0.37063601  0.22668855  0.75082496  1
  H  H7  1  0.30417150  0.08542835  0.61400660  1
  H  H8  1  0.30067827  0.08020109  0.40426792  1
  H  H9  1  0.37112182  0.27329286  0.24778774  1
  H  H10  1  0.32176318  0.14306708  0.26074193  1
  H  H11  1  0.13353483  0.21444031  0.25694748  1
  H  H12  1  0.18202457  0.34708274  0.24998549  1
  H  H13  1  0.21714053  0.17629899  0.12346935  1
  H  H14  1  0.26305531  0.30071512  0.11782861  1
  H  H15  1  0.13307284  0.27990280  0.11740970  1
  H  H16  1  0.30245697  0.41782153  0.38611721  1
  H  H17  1  0.29808961  0.42285928  0.59472368  1
  H  H18  1  0.19901836  0.73850818  0.88229366  1
  H  H19  1  0.22380861  0.86771135  0.88272640  1
  H  H20  1  0.32482586  0.78065867  0.87685961  1
  H  H21  1  0.15548861  0.82033275  0.74991229  1
  H  H22  1  0.28937364  0.86546203  0.74324422  1
  H  H23  1  0.35600712  0.67549132  0.73965077  1
  H  H24  1  0.22452164  0.62943389  0.75240242  1
  H  H25  1  0.08195922  0.69704251  0.61408120  1
  H  H26  1  0.07692024  0.70233910  0.40549981  1
  H  H27  1  0.27114740  0.62878596  0.24938044  1
  H  H28  1  0.14041447  0.68033891  0.26137878  1
  H  H29  1  0.21001059  0.86726818  0.25621075  1
  H  H30  1  0.34345373  0.81693170  0.25152934  1
  H  H31  1  0.17642449  0.78013862  0.12272116  1
  H  H32  1  0.30233232  0.73531493  0.12009508  1
  H  H33  1  0.27725488  0.86521764  0.11723943  1
  H  H34  1  0.41430532  0.69630352  0.38622450  1
  H  H35  1  0.41953995  0.69888028  0.59597832  1
  H  H36  1  0.80231647  0.23629490  0.12004258  1
  H  H37  1  0.77390757  0.36555368  0.11688635  1
  H  H38  1  0.67531228  0.27803208  0.12237157  1
  H  H39  1  0.84083494  0.31920115  0.25152286  1
  H  H40  1  0.70613651  0.36617666  0.25581795  1
  H  H41  1  0.64132237  0.17747521  0.26104049  1
  H  H42  1  0.77330661  0.12922518  0.24922202  1
  H  H43  1  0.91455465  0.19580878  0.38600416  1
  H  H44  1  0.91977041  0.19924563  0.59574463  1
  H  H45  1  0.72668193  0.12880507  0.75218472  1
  H  H46  1  0.85688476  0.17819320  0.73926745  1
  H  H47  1  0.78553704  0.36643165  0.74309957  1
  H  H48  1  0.65289482  0.31795700  0.74991603  1
  H  H49  1  0.82345248  0.28264113  0.87659393  1
  H  H50  1  0.69899133  0.23683629  0.88207341  1
  H  H51  1  0.71991682  0.36679998  0.88258574  1
  H  H52  1  0.58219537  0.19750777  0.61386139  1
  H  H53  1  0.57717632  0.20182008  0.40525681  1
  H  H54  1  0.76150801  0.80131033  0.11781462  1
  H  H55  1  0.63234763  0.77648759  0.11733271  1
  H  H56  1  0.71940125  0.67544902  0.12310888  1
  H  H57  1  0.67969352  0.84460510  0.25021835  1
  H  H58  1  0.63459228  0.71068501  0.25676068  1
  H  H59  1  0.82451168  0.64404343  0.26034650  1
  H  H60  1  0.87059048  0.77554729  0.24762052  1
  H  H61  1  0.80299478  0.91809360  0.38594517  1
  H  H62  1  0.79775028  0.92308267  0.59451392  1
  H  H63  1  0.87130596  0.72885579  0.75059159  1
  H  H64  1  0.81973708  0.85959853  0.73859871  1
  H  H65  1  0.63286837  0.79000458  0.74393062  1
  H  H66  1  0.68319739  0.65652386  0.74854238  1
  H  H67  1  0.72019896  0.82354258  0.87732509  1
  H  H68  1  0.76513465  0.69765361  0.87984601  1
  H  H69  1  0.63521877  0.72265195  0.88293541  1
  H  H70  1  0.80370475  0.58565952  0.61378638  1
  H  H71  1  0.80119521  0.58045583  0.40402221  1
  Pb  Pb72  1  0.99423256  -0.00037718  0.00277913  1
  Pb  Pb73  1  0.99993910  0.50608906  0.99680839  1
  Pb  Pb74  1  0.50055373  0.00589076  0.99665810  1
  Pb  Pb75  1  0.49365021  0.49958950  0.00358274  1
  C  C76  1  0.20021261  0.24195606  0.76317658  1
  C  C77  1  0.30527603  0.27508811  0.72389745  1
  C  C78  1  0.30239321  0.25956891  0.63195696  1
  C  C79  1  0.30114743  0.16466364  0.58707495  1
  C  C80  1  0.29707856  0.19546714  0.50226136  1
  C  C81  1  0.30325227  0.24352251  0.36736599  1
  C  C82  1  0.30550858  0.22740539  0.27541625  1
  C  C83  1  0.20047928  0.26335663  0.23644783  1
  C  C84  1  0.30060135  0.33825529  0.41244384  1
  C  C85  1  0.29638915  0.30724801  0.49719429  1
  C  C86  1  0.23869443  0.79978887  0.76365450  1
  C  C87  1  0.27211401  0.69382997  0.72481550  1
  C  C88  1  0.25620070  0.69620824  0.63285564  1
  C  C89  1  0.16150108  0.69898670  0.58776413  1
  C  C90  1  0.19252924  0.70355037  0.50302624  1
  C  C91  1  0.24016028  0.69811402  0.36826774  1
  C  C92  1  0.22448768  0.69536855  0.27634003  1
  C  C93  1  0.26018524  0.79948899  0.23697779  1
  C  C94  1  0.33508233  0.69921920  0.41313892  1
  C  C95  1  0.30429143  0.70293077  0.49798777  1
  C  C96  1  0.75810632  0.29965153  0.23677739  1
  C  C97  1  0.72493445  0.19462773  0.27611288  1
  C  C98  1  0.74044044  0.19757611  0.36804608  1
  C  C99  1  0.83533641  0.19884440  0.41293275  1
  C  C100  1  0.80452816  0.20292988  0.49774002  1
  C  C101  1  0.75646838  0.19671593  0.63262382  1
  C  C102  1  0.77256402  0.19444303  0.72457317  1
  C  C103  1  0.73658290  0.29947438  0.76353119  1
  C  C104  1  0.66176250  0.19937532  0.58753852  1
  C  C105  1  0.69276106  0.20360887  0.50280096  1
  C  C106  1  0.70024580  0.76141509  0.23639567  1
  C  C107  1  0.80619676  0.72793970  0.27520207  1
  C  C108  1  0.80383126  0.74382595  0.36716320  1
  C  C109  1  0.80104459  0.83851563  0.41226214  1
  C  C110  1  0.79645883  0.80747952  0.49697492  1
  C  C111  1  0.80189428  0.75982837  0.63173611  1
  C  C112  1  0.80470866  0.77551264  0.72365769  1
  C  C113  1  0.70065890  0.73979907  0.76308896  1
  C  C114  1  0.80077749  0.66488967  0.58686352  1
  C  C115  1  0.79706873  0.69570059  0.50202637  1
  I  I116  1  0.24883755  0.03415545  0.00451522  1
  I  I117  1  0.24846459  0.46508531  0.99092106  1
  I  I118  1  0.74901099  0.96301969  0.99176199  1
  I  I119  1  0.74831060  0.53300555  0.00556931  1
  I  I120  1  0.96601819  0.25133579  0.99467095  1
  I  I121  1  0.03705612  0.75120361  0.00843309  1
  I  I122  1  0.53505509  0.25115408  0.00888109  1
  I  I123  1  0.46691504  0.75128541  0.99518977  1
  I  I124  1  0.01535912  0.00371161  0.80605518  1
  I  I125  1  0.00527782  0.00863908  0.19995240  1
  I  I126  1  0.98994128  0.49630212  0.79972451  1
  I  I127  1  0.99625236  0.48437316  0.19360809  1
  I  I128  1  0.49297055  0.99607403  0.79956177  1
  I  I129  1  0.49612217  0.98460259  0.19354169  1
  I  I130  1  0.51558550  0.50380046  0.80669159  1
  I  I131  1  0.50278875  0.50795011  0.20058369  1
  N  N132  1  0.20556216  0.24839506  0.85615147  1
  N  N133  1  0.30063984  0.15745636  0.42195799  1
  N  N134  1  0.20421013  0.25407867  0.14341480  1
  N  N135  1  0.29874325  0.34537459  0.57739055  1
  N  N136  1  0.24752505  0.79586462  0.85669994  1
  N  N137  1  0.15441771  0.70147741  0.42284888  1
  N  N138  1  0.25330565  0.79434345  0.14401660  1
  N  N139  1  0.34227158  0.69909556  0.57828133  1
  N  N140  1  0.75174691  0.29413327  0.14380473  1
  N  N141  1  0.84253362  0.19936424  0.57804891  1
  N  N142  1  0.74571898  0.29566306  0.85655917  1
  N  N143  1  0.65464477  0.20124283  0.42260024  1
  N  N144  1  0.70417849  0.75273279  0.14335573  1
  N  N145  1  0.79852608  0.84560044  0.57716344  1
  N  N146  1  0.70600649  0.74664403  0.85604566  1
  N  N147  1  0.80090908  0.65770882  0.42171788  1
