# generated using pymatgen
data_H18PbC12S2(I2N)2
_symmetry_space_group_name_H-M   'P 1'
_cell_length_a   12.42528816
_cell_length_b   12.42511211
_cell_length_c   18.18651462
_cell_angle_alpha   87.90746626
_cell_angle_beta   87.90541117
_cell_angle_gamma   89.81990950
_symmetry_Int_Tables_number   1
_chemical_formula_structural   H18PbC12S2(I2N)2
_chemical_formula_sum   'H72 Pb4 C48 S8 I16 N8'
_cell_volume   2803.98429818
_cell_formula_units_Z   4
loop_
 _symmetry_equiv_pos_site_id
 _symmetry_equiv_pos_as_xyz
  1  'x, y, z'
loop_
 _atom_site_type_symbol
 _atom_site_label
 _atom_site_symmetry_multiplicity
 _atom_site_fract_x
 _atom_site_fract_y
 _atom_site_fract_z
 _atom_site_occupancy
  H  H0  1  0.23685933  0.29819900  0.89583165  1
  H  H1  1  0.26643670  0.17004239  0.87491695  1
  H  H2  1  0.13908868  0.20695390  0.89203287  1
  H  H3  1  0.16542375  0.18776584  0.76330306  1
  H  H4  1  0.13893126  0.32511859  0.78398333  1
  H  H5  1  0.36719262  0.23052529  0.76345942  1
  H  H6  1  0.33478556  0.36829968  0.77201372  1
  H  H7  1  0.26777974  0.47738686  0.65230778  1
  H  H8  1  0.24794018  0.44558790  0.51119496  1
  H  H9  1  0.25023938  0.05665816  0.48713675  1
  H  H10  1  0.26970114  0.02444993  0.34484039  1
  H  H11  1  0.33652610  0.13392790  0.22198778  1
  H  H12  1  0.36589275  0.27273245  0.22851693  1
  H  H13  1  0.13816885  0.17582907  0.22238264  1
  H  H14  1  0.16518800  0.31391151  0.23712326  1
  H  H15  1  0.26466662  0.32053772  0.11750915  1
  H  H16  1  0.22563024  0.19413400  0.10254126  1
  H  H17  1  0.13467029  0.29428898  0.11353397  1
  H  H18  1  0.30639682  0.77421804  0.89733712  1
  H  H19  1  0.17975481  0.73586153  0.88246583  1
  H  H20  1  0.20671477  0.86567280  0.88643867  1
  H  H21  1  0.18676615  0.83536122  0.76282353  1
  H  H22  1  0.32502221  0.86160199  0.77750627  1
  H  H23  1  0.22683114  0.63442699  0.77136558  1
  H  H24  1  0.36580290  0.66301024  0.77790113  1
  H  H25  1  0.47548596  0.73020597  0.65505888  1
  H  H26  1  0.44329701  0.74970073  0.51276441  1
  H  H27  1  0.05436717  0.75212815  0.48872538  1
  H  H28  1  0.02253912  0.73235718  0.34760846  1
  H  H29  1  0.13141602  0.66573216  0.22785698  1
  H  H30  1  0.26902417  0.63260732  0.23641741  1
  H  H31  1  0.17560470  0.86134932  0.21594823  1
  H  H32  1  0.31279733  0.83415186  0.23670393  1
  H  H33  1  0.33013392  0.73309536  0.12510752  1
  H  H34  1  0.20219825  0.76339567  0.10405634  1
  H  H35  1  0.29398850  0.86067365  0.10799125  1
  H  H36  1  0.70188704  0.26291078  0.10415769  1
  H  H37  1  0.83002429  0.23331892  0.12514035  1
  H  H38  1  0.79313819  0.36067251  0.10791835  1
  H  H39  1  0.81224390  0.33448321  0.23667581  1
  H  H40  1  0.67491335  0.36098412  0.21594270  1
  H  H41  1  0.76943398  0.13271873  0.23656170  1
  H  H42  1  0.63166899  0.16516170  0.22799600  1
  H  H43  1  0.52259320  0.23221703  0.34769893  1
  H  H44  1  0.55440987  0.25208471  0.48880786  1
  H  H45  1  0.94334221  0.24976906  0.51284399  1
  H  H46  1  0.97555666  0.23029412  0.65513948  1
  H  H47  1  0.86607911  0.16350359  0.77799779  1
  H  H48  1  0.72728286  0.13409841  0.77146408  1
  H  H49  1  0.82412779  0.36184545  0.77761086  1
  H  H50  1  0.68606244  0.33480015  0.76283790  1
  H  H51  1  0.67939306  0.23531566  0.88244783  1
  H  H52  1  0.80579019  0.27439007  0.89743694  1
  H  H53  1  0.70561227  0.36531616  0.88643792  1
  H  H54  1  0.72574883  0.69365059  0.10268159  1
  H  H55  1  0.76415862  0.82028341  0.11756763  1
  H  H56  1  0.63434133  0.79337228  0.11360194  1
  H  H57  1  0.66466390  0.81326141  0.23721508  1
  H  H58  1  0.63838606  0.67501941  0.22251156  1
  H  H59  1  0.86558664  0.77315539  0.22864721  1
  H  H60  1  0.83696981  0.63418741  0.22210426  1
  H  H61  1  0.76981728  0.52450748  0.34494685  1
  H  H62  1  0.75029669  0.55669995  0.48724099  1
  H  H63  1  0.74785272  0.94563682  0.51127698  1
  H  H64  1  0.76766236  0.97747754  0.65239198  1
  H  H65  1  0.83431799  0.86861169  0.77212961  1
  H  H66  1  0.86747218  0.73100919  0.76355174  1
  H  H67  1  0.63873481  0.82437194  0.78413583  1
  H  H68  1  0.66592548  0.68719930  0.76331627  1
  H  H69  1  0.76713542  0.66979247  0.87482758  1
  H  H70  1  0.73683461  0.79770745  0.89595933  1
  H  H71  1  0.63955745  0.70592247  0.89205660  1
  Pb  Pb72  1  0.98997534  0.00072671  0.00471844  1
  Pb  Pb73  1  0.99915846  0.51034381  0.99533452  1
  Pb  Pb74  1  0.49957131  0.01018639  0.99525152  1
  Pb  Pb75  1  0.48953159  0.50062327  0.00471644  1
  C  C76  1  0.19858992  0.25979551  0.78721582  1
  C  C77  1  0.30642624  0.29240853  0.75007811  1
  C  C78  1  0.29618303  0.30597476  0.66855473  1
  C  C79  1  0.27528285  0.39892076  0.62787293  1
  C  C80  1  0.26481954  0.38180024  0.55186052  1
  C  C81  1  0.27769856  0.27490170  0.53400473  1
  C  C82  1  0.27745677  0.22741192  0.46252908  1
  C  C83  1  0.26594620  0.12034760  0.44541551  1
  C  C84  1  0.27628406  0.10309324  0.36886187  1
  C  C85  1  0.29568374  0.19623222  0.32698304  1
  C  C86  1  0.30641362  0.20971223  0.24480032  1
  C  C87  1  0.19790252  0.24034440  0.21326607  1
  C  C88  1  0.26018196  0.80223026  0.78664745  1
  C  C89  1  0.29017843  0.69356022  0.75509353  1
  C  C90  1  0.30368854  0.70426986  0.67291037  1
  C  C91  1  0.39683555  0.72365060  0.63103559  1
  C  C92  1  0.37959211  0.73400495  0.55448768  1
  C  C93  1  0.27253453  0.72252724  0.53736505  1
  C  C94  1  0.22503569  0.72230972  0.46589067  1
  C  C95  1  0.11813920  0.73523330  0.44805270  1
  C  C96  1  0.10099524  0.72480780  0.37203770  1
  C  C97  1  0.19392515  0.70388701  0.33134054  1
  C  C98  1  0.20744605  0.69367102  0.24981504  1
  C  C99  1  0.24063278  0.80136947  0.21273319  1
  C  C100  1  0.74022633  0.30130970  0.21275515  1
  C  C101  1  0.70756620  0.19350914  0.24992540  1
  C  C102  1  0.69399675  0.20380177  0.33144902  1
  C  C103  1  0.60106779  0.22471473  0.37212815  1
  C  C104  1  0.61818733  0.23519684  0.44813988  1
  C  C105  1  0.72509452  0.22231425  0.46598836  1
  C  C106  1  0.77258773  0.22256006  0.53745866  1
  C  C107  1  0.87965208  0.23406355  0.55456975  1
  C  C108  1  0.89690605  0.22372012  0.63111866  1
  C  C109  1  0.80377746  0.20432252  0.67300033  1
  C  C110  1  0.79028950  0.19359187  0.75518265  1
  C  C111  1  0.75962078  0.30209927  0.78671168  1
  C  C112  1  0.69777623  0.73984619  0.21337554  1
  C  C113  1  0.80643932  0.70981588  0.24491753  1
  C  C114  1  0.79572876  0.69630993  0.32709757  1
  C  C115  1  0.77635259  0.60315109  0.36896893  1
  C  C116  1  0.76598458  0.62040221  0.44552212  1
  C  C117  1  0.77744522  0.72746655  0.46264056  1
  C  C118  1  0.77766105  0.77496695  0.53411338  1
  C  C119  1  0.76474813  0.88186854  0.55195117  1
  C  C120  1  0.77519530  0.89901915  0.62796177  1
  C  C121  1  0.79612237  0.80608834  0.66865747  1
  C  C122  1  0.80638824  0.79257474  0.75017592  1
  C  C123  1  0.69872657  0.75934991  0.78729712  1
  S  S124  1  0.30075722  0.30614759  0.38260183  1
  S  S125  1  0.30357606  0.19636049  0.61251478  1
  S  S126  1  0.30354871  0.69642204  0.38736648  1
  S  S127  1  0.19378379  0.69923441  0.61728860  1
  S  S128  1  0.69385591  0.19925877  0.61738902  1
  S  S129  1  0.80362116  0.19641483  0.38747725  1
  S  S130  1  0.80356177  0.69645729  0.61263437  1
  S  S131  1  0.80073907  0.80621557  0.38271989  1
  I  I132  1  0.24565035  0.03832857  0.01999263  1
  I  I133  1  0.24783381  0.45532552  0.97564760  1
  I  I134  1  0.74821801  0.95452147  0.97622163  1
  I  I135  1  0.74516981  0.53787103  0.02027422  1
  I  I136  1  0.96176173  0.25469002  0.97979494  1
  I  I137  1  0.04538471  0.75209138  0.02390430  1
  I  I138  1  0.54473101  0.25195896  0.02431933  1
  I  I139  1  0.46204557  0.75459612  0.97986640  1
  I  I140  1  0.03898589  0.99845484  0.83072078  1
  I  I141  1  0.96054403  0.01216530  0.17760954  1
  I  I142  1  0.98736429  0.53975151  0.82244429  1
  I  I143  1  0.00151246  0.46109810  0.16926716  1
  I  I144  1  0.48852148  0.03990758  0.82238098  1
  I  I145  1  0.50166339  0.96104940  0.16924969  1
  I  I146  1  0.53880110  0.49836962  0.83075904  1
  I  I147  1  0.45974850  0.51197322  0.17760520  1
  N  N148  1  0.21173621  0.23181202  0.86723760  1
  N  N149  1  0.20701174  0.26311522  0.13166748  1
  N  N150  1  0.23746836  0.79320147  0.86824782  1
  N  N151  1  0.26865701  0.78815258  0.13272185  1
  N  N152  1  0.76826295  0.28805598  0.13274989  1
  N  N153  1  0.73681025  0.29298130  0.86830407  1
  N  N154  1  0.70680315  0.76258200  0.13178120  1
  N  N155  1  0.71204823  0.73126656  0.86728822  1
