# generated using pymatgen
data_H12PbC7(I2N)2
_symmetry_space_group_name_H-M   'P 1'
_cell_length_a   12.84471783
_cell_length_b   12.70024467
_cell_length_c   10.47868638
_cell_angle_alpha   91.41149513
_cell_angle_beta   90.64208364
_cell_angle_gamma   89.75528736
_symmetry_Int_Tables_number   1
_chemical_formula_structural   H12PbC7(I2N)2
_chemical_formula_sum   'H48 Pb4 C28 I16 N8'
_cell_volume   1708.75957048
_cell_formula_units_Z   4
loop_
 _symmetry_equiv_pos_site_id
 _symmetry_equiv_pos_as_xyz
  1  'x, y, z'
loop_
 _atom_site_type_symbol
 _atom_site_label
 _atom_site_symmetry_multiplicity
 _atom_site_fract_x
 _atom_site_fract_y
 _atom_site_fract_z
 _atom_site_occupancy
  H  H0  1  0.26799552  0.47348916  0.56740125  1
  H  H1  1  0.28471890  0.41944179  0.41218088  1
  H  H2  1  0.15805057  0.42643386  0.47813462  1
  H  H3  1  0.29736059  0.36596022  0.74687092  1
  H  H4  1  0.31777909  0.19995662  0.83174762  1
  H  H5  1  0.28513295  0.03948745  0.72706975  1
  H  H6  1  0.23676218  0.04028642  0.49170281  1
  H  H7  1  0.17147332  0.14033861  0.31531140  1
  H  H8  1  0.16461094  0.28076312  0.32077797  1
  H  H9  1  0.28930484  0.20231230  0.16670893  1
  H  H10  1  0.34712885  0.28880823  0.26720881  1
  H  H11  1  0.36308906  0.15694353  0.28404566  1
  H  H12  1  0.47496024  0.72949658  0.55932652  1
  H  H13  1  0.42166896  0.70964384  0.40462232  1
  H  H14  1  0.42947226  0.83953519  0.47106628  1
  H  H15  1  0.37008598  0.70456753  0.74045467  1
  H  H16  1  0.20741857  0.68705814  0.82886111  1
  H  H17  1  0.04835433  0.72526807  0.73077651  1
  H  H18  1  0.04703968  0.76768471  0.49528839  1
  H  H19  1  0.14546964  0.82856504  0.31660250  1
  H  H20  1  0.28379648  0.83258835  0.31779704  1
  H  H21  1  0.21274896  0.70412468  0.16410963  1
  H  H22  1  0.28578260  0.64158015  0.27008801  1
  H  H23  1  0.15436271  0.63670166  0.27766256  1
  H  H24  1  0.52797472  0.23470987  0.43740296  1
  H  H25  1  0.58105729  0.22006257  0.59217951  1
  H  H26  1  0.57365443  0.34710178  0.52618277  1
  H  H27  1  0.63536373  0.21061604  0.25398254  1
  H  H28  1  0.80155180  0.19919188  0.16588894  1
  H  H29  1  0.95732925  0.23046782  0.27074367  1
  H  H30  1  0.95526401  0.27003300  0.50962448  1
  H  H31  1  0.85512677  0.33369581  0.68732470  1
  H  H32  1  0.71690893  0.33916833  0.68454385  1
  H  H33  1  0.79783372  0.21465406  0.83460651  1
  H  H34  1  0.71008919  0.15437012  0.73669027  1
  H  H35  1  0.83916090  0.13825646  0.71502639  1
  H  H36  1  0.76854442  0.52248856  0.43642427  1
  H  H37  1  0.78852618  0.57735150  0.59135226  1
  H  H38  1  0.66017752  0.56872461  0.52748555  1
  H  H39  1  0.79231148  0.63041914  0.25556256  1
  H  H40  1  0.80488871  0.79655792  0.17020101  1
  H  H41  1  0.77046590  0.95620888  0.27399033  1
  H  H42  1  0.72498535  0.95547817  0.50857722  1
  H  H43  1  0.65801656  0.85445340  0.68000590  1
  H  H44  1  0.65852444  0.71380635  0.67852133  1
  H  H45  1  0.77358376  0.80008463  0.83836393  1
  H  H46  1  0.83862881  0.71612359  0.74495004  1
  H  H47  1  0.84884561  0.84771144  0.72445349  1
  Pb  Pb48  1  0.01321905  0.99446474  0.99788768  1
  Pb  Pb49  1  0.00253903  0.49226379  0.99499376  1
  Pb  Pb50  1  0.50939294  0.99563387  0.00454992  1
  Pb  Pb51  1  0.50993740  0.50055701  -0.00338104  1
  C  C52  1  0.24063995  0.41154789  0.50075931  1
  C  C53  1  0.25487336  0.30555526  0.55631886  1
  C  C54  1  0.28214618  0.29745182  0.68491227  1
  C  C55  1  0.27642903  0.11091170  0.67290658  1
  C  C56  1  0.25016281  0.11394412  0.54457451  1
  C  C57  1  0.24076950  0.21092756  0.48449891  1
  C  C58  1  0.21351119  0.21256939  0.34396895  1
  C  C59  1  0.41435208  0.75676429  0.49353101  1
  C  C60  1  0.30956905  0.74561376  0.55198990  1
  C  C61  1  0.30247550  0.72066919  0.68022783  1
  C  C62  1  0.11828328  0.73091403  0.67428533  1
  C  C63  1  0.12024880  0.75424287  0.54575786  1
  C  C64  1  0.21546501  0.76029007  0.48291957  1
  C  C65  1  0.21629062  0.78479808  0.34271236  1
  C  C66  1  0.58875910  0.26332612  0.50334170  1
  C  C67  1  0.69365988  0.24939302  0.44608291  1
  C  C68  1  0.70248319  0.22528929  0.31623705  1
  C  C69  1  0.88674642  0.23501559  0.32661031  1
  C  C70  1  0.88287896  0.25659030  0.45676933  1
  C  C71  1  0.78682760  0.26311994  0.51809114  1
  C  C72  1  0.78441887  0.28992606  0.65926467  1
  C  C73  1  0.74186188  0.58428934  0.50326929  1
  C  C74  1  0.75189260  0.69042652  0.44645430  1
  C  C75  1  0.77687779  0.69848233  0.31793512  1
  C  C76  1  0.76525786  0.88490926  0.32863696  1
  C  C77  1  0.74088540  0.88185573  0.45682897  1
  C  C78  1  0.73465254  0.78499986  0.51729758  1
  C  C79  1  0.70428326  0.78361961  0.65603726  1
  I  I80  1  0.25551308  0.00546553  0.00916192  1
  I  I81  1  0.24718062  0.52875803  0.97916193  1
  I  I82  1  0.75712272  0.00939425  0.00817001  1
  I  I83  1  0.75317912  0.51178629  0.99206977  1
  I  I84  1  0.98447178  0.24398042  0.98581582  1
  I  I85  1  0.97935300  0.74803679  0.00543644  1
  I  I86  1  0.47540254  0.25102167  0.99795775  1
  I  I87  1  0.49569326  0.75276802  0.99323158  1
  I  I88  1  0.96991727  0.99326331  0.68198908  1
  I  I89  1  0.01185220  0.99339459  0.29653402  1
  I  I90  1  0.99272915  0.49678385  0.69525145  1
  I  I91  1  0.00799944  0.51561200  0.30403213  1
  I  I92  1  0.54115832  0.02577535  0.70458809  1
  I  I93  1  0.48833836  0.01358263  0.30992988  1
  I  I94  1  0.49732438  0.50358392  0.69797249  1
  I  I95  1  0.45985990  0.49319442  0.29529839  1
  N  N96  1  0.29194302  0.20242436  0.73801804  1
  N  N97  1  0.30863427  0.21692613  0.26170828  1
  N  N98  1  0.20887210  0.71407155  0.73631900  1
  N  N99  1  0.21832889  0.68645915  0.25969847  1
  N  N100  1  0.79701110  0.21919252  0.26151039  1
  N  N101  1  0.78134462  0.19375385  0.74036803  1
  N  N102  1  0.78259039  0.79359094  0.26414828  1
  N  N103  1  0.79707922  0.78597732  0.74545793  1
