# generated using pymatgen
data_H15PbC12SI4N2F
_symmetry_space_group_name_H-M   'P 1'
_cell_length_a   12.16091635
_cell_length_b   12.34772643
_cell_length_c   16.72627156
_cell_angle_alpha   92.06888904
_cell_angle_beta   90.91349860
_cell_angle_gamma   91.03676349
_symmetry_Int_Tables_number   1
_chemical_formula_structural   H15PbC12SI4N2F
_chemical_formula_sum   'H60 Pb4 C48 S4 I16 N8 F4'
_cell_volume   2509.21708045
_cell_formula_units_Z   4
loop_
 _symmetry_equiv_pos_site_id
 _symmetry_equiv_pos_as_xyz
  1  'x, y, z'
loop_
 _atom_site_type_symbol
 _atom_site_label
 _atom_site_symmetry_multiplicity
 _atom_site_fract_x
 _atom_site_fract_y
 _atom_site_fract_z
 _atom_site_occupancy
  H  H0  1  0.19100639  0.32624077  0.82388370  1
  H  H1  1  0.15343294  0.19573541  0.81756209  1
  H  H2  1  0.23871462  0.23735465  0.89110445  1
  H  H3  1  0.38367381  0.27485358  0.80020742  1
  H  H4  1  0.33903041  0.13696746  0.79398027  1
  H  H5  1  0.33601625  0.39993047  0.69338042  1
  H  H6  1  0.29290631  0.42058534  0.55023220  1
  H  H7  1  0.13773762  0.28639806  0.17559478  1
  H  H8  1  0.16523312  0.14938533  0.19618526  1
  H  H9  1  0.29723547  0.21604435  0.11020753  1
  H  H10  1  0.36371478  0.19646795  0.19585788  1
  H  H11  1  0.33212495  0.32394116  0.16931630  1
  H  H12  1  0.12377132  0.42558294  0.29416620  1
  H  H13  1  0.19447025  0.08272092  0.52847348  1
  H  H14  1  0.24116941  0.06196376  0.67155578  1
  H  H15  1  0.32258095  0.80345437  0.83176876  1
  H  H16  1  0.19545754  0.85308952  0.81713428  1
  H  H17  1  0.21836102  0.76838793  0.89084234  1
  H  H18  1  0.25906490  0.62199055  0.79660046  1
  H  H19  1  0.12236858  0.66934808  0.79014418  1
  H  H20  1  0.39436793  0.66453186  0.69030204  1
  H  H21  1  0.42127820  0.70525316  0.54823657  1
  H  H22  1  0.28596248  0.86794274  0.18014946  1
  H  H23  1  0.14665561  0.84065379  0.20366766  1
  H  H24  1  0.20089094  0.71129693  0.10871590  1
  H  H25  1  0.19098424  0.64405965  0.19283198  1
  H  H26  1  0.31530411  0.67844190  0.15820942  1
  H  H27  1  0.43065254  0.87877205  0.29656209  1
  H  H28  1  0.08300812  0.80393018  0.52952177  1
  H  H29  1  0.05660124  0.76248311  0.67154467  1
  H  H30  1  0.67290931  0.31957927  0.18550413  1
  H  H31  1  0.80574471  0.35816790  0.18522244  1
  H  H32  1  0.75507988  0.27559244  0.11198802  1
  H  H33  1  0.73050310  0.12793509  0.19664814  1
  H  H34  1  0.86890176  0.17707056  0.20177162  1
  H  H35  1  0.60343190  0.16166277  0.30733065  1
  H  H36  1  0.57971153  0.19892237  0.45155099  1
  H  H37  1  0.70288435  0.36953848  0.82694883  1
  H  H38  1  0.84422963  0.34859569  0.80519064  1
  H  H39  1  0.77968987  0.21206535  0.88812970  1
  H  H40  1  0.80411002  0.15299771  0.79917605  1
  H  H41  1  0.67373030  0.17321931  0.82572928  1
  H  H42  1  0.55994974  0.36545672  0.70823327  1
  H  H43  1  0.91915612  0.30730154  0.47320815  1
  H  H44  1  0.94294325  0.26635545  0.32885837  1
  H  H45  1  0.68244906  0.66866888  0.17865919  1
  H  H46  1  0.64287440  0.79801133  0.18113792  1
  H  H47  1  0.72581451  0.75535923  0.10916906  1
  H  H48  1  0.87466631  0.72999679  0.20082454  1
  H  H49  1  0.82854016  0.86597391  0.20450785  1
  H  H50  1  0.83465292  0.60625859  0.30945369  1
  H  H51  1  0.79374299  0.58589817  0.45214774  1
  H  H52  1  0.63129255  0.70836808  0.82087110  1
  H  H53  1  0.64901821  0.84801061  0.80021425  1
  H  H54  1  0.78592801  0.80516371  0.88922483  1
  H  H55  1  0.85253660  0.81614955  0.80325628  1
  H  H56  1  0.82313267  0.69219516  0.83962832  1
  H  H57  1  0.61603572  0.57336278  0.70046567  1
  H  H58  1  0.69293176  0.91948761  0.46960340  1
  H  H59  1  0.73724903  0.94032337  0.32709514  1
  Pb  Pb60  1  0.00730464  0.99384345  0.99837530  1
  Pb  Pb61  1  0.99952410  0.48327017  0.99433907  1
  Pb  Pb62  1  0.50657545  1.00334396  0.99178524  1
  Pb  Pb63  1  0.50611502  0.50564158  0.00858921  1
  C  C64  1  0.31623899  0.21969000  0.77991100  1
  C  C65  1  0.28997076  0.23012264  0.69257124  1
  C  C66  1  0.30370380  0.33065931  0.65737868  1
  C  C67  1  0.27899654  0.34247691  0.57695383  1
  C  C68  1  0.23884961  0.25377405  0.52915810  1
  C  C69  1  0.21298657  0.27099842  0.44490187  1
  C  C70  1  0.19464275  0.26439918  0.29478842  1
  C  C71  1  0.19345980  0.23359128  0.20805377  1
  C  C72  1  0.15916727  0.36089879  0.32831636  1
  C  C73  1  0.17007417  0.36298251  0.41229275  1
  C  C74  1  0.22594509  0.15249056  0.56431140  1
  C  C75  1  0.25159943  0.14100236  0.64507563  1
  C  C76  1  0.20829173  0.68931545  0.77741546  1
  C  C77  1  0.22416751  0.71265972  0.69098622  1
  C  C78  1  0.32652319  0.69669266  0.65534394  1
  C  C79  1  0.34169938  0.71926359  0.57539559  1
  C  C80  1  0.25450341  0.75864436  0.52883772  1
  C  C81  1  0.27356887  0.78389471  0.44541486  1
  C  C82  1  0.26505594  0.80753126  0.29682367  1
  C  C83  1  0.23120017  0.81217704  0.21125777  1
  C  C84  1  0.36452864  0.84211156  0.33011686  1
  C  C85  1  0.36763156  0.82819547  0.41328907  1
  C  C86  1  0.15146711  0.77308890  0.56445710  1
  C  C87  1  0.13674005  0.75013932  0.64451513  1
  C  C88  1  0.78434724  0.19520140  0.21882827  1
  C  C89  1  0.77378581  0.21454027  0.30751288  1
  C  C90  1  0.67238162  0.19494079  0.34349168  1
  C  C91  1  0.65892868  0.21576530  0.42478049  1
  C  C92  1  0.74668805  0.25841516  0.47292249  1
  C  C93  1  0.72612650  0.28441687  0.55721694  1
  C  C94  1  0.73069722  0.31434790  0.70658337  1
  C  C95  1  0.75984710  0.31790590  0.79321877  1
  C  C96  1  0.62945013  0.33658017  0.67369544  1
  C  C97  1  0.62847021  0.31936126  0.59006984  1
  C  C98  1  0.84952366  0.27500359  0.43723318  1
  C  C99  1  0.86274266  0.25283342  0.35559118  1
  C  C100  1  0.80770756  0.78277475  0.22031440  1
  C  C101  1  0.78606443  0.77366786  0.30791808  1
  C  C102  1  0.80255335  0.67468386  0.34438227  1
  C  C103  1  0.77972586  0.66320934  0.42468649  1
  C  C104  1  0.73885526  0.75067459  0.47099479  1
  C  C105  1  0.71109323  0.73245903  0.55428794  1
  C  C106  1  0.68792157  0.73649687  0.70341792  1
  C  C107  1  0.68326033  0.76687496  0.78997656  1
  C  C108  1  0.65204925  0.63960945  0.66786006  1
  C  C109  1  0.66553763  0.63916243  0.58435588  1
  C  C110  1  0.72501403  0.85085817  0.43492049  1
  C  C111  1  0.74869356  0.86210601  0.35427822  1
  S  S112  1  0.23904984  0.17804316  0.36759935  1
  S  S113  1  0.17730291  0.76000382  0.36890345  1
  S  S114  1  0.82294069  0.27456721  0.63374476  1
  S  S115  1  0.73560924  0.82516267  0.63310694  1
  I  I116  1  0.25494740  0.08051441  0.99276241  1
  I  I117  1  0.25161771  0.45332270  0.04284469  1
  I  I118  1  0.75325960  0.92450028  0.00801398  1
  I  I119  1  0.75575893  0.57187877  0.97505136  1
  I  I120  1  0.92035634  0.23692533  0.00240321  1
  I  I121  1  0.06413924  0.74094172  0.99349895  1
  I  I122  1  0.56324925  0.25786315  0.99090649  1
  I  I123  1  0.42689569  0.75843610  0.01024435  1
  I  I124  1  0.00345604  0.98486670  0.79553831  1
  I  I125  1  0.00769981  -0.00018930  0.18334714  1
  I  I126  1  0.03537005  0.45536188  0.80557102  1
  I  I127  1  0.96561831  0.50379039  0.18515490  1
  I  I128  1  0.52336713  0.01353195  0.80004257  1
  I  I129  1  0.50242474  0.02565324  0.18366074  1
  I  I130  1  0.46020839  0.51099413  0.82490826  1
  I  I131  1  0.54051972  0.49970111  0.20363307  1
  N  N132  1  0.21921893  0.24759586  0.83120758  1
  N  N133  1  0.30457305  0.24425205  0.16969600  1
  N  N134  1  0.23955486  0.78543006  0.83227592  1
  N  N135  1  0.23571694  0.70405770  0.16588557  1
  N  N136  1  0.75147956  0.29297665  0.17301751  1
  N  N137  1  0.75309892  0.20675638  0.82840438  1
  N  N138  1  0.70830351  0.74815572  0.16935154  1
  N  N139  1  0.79431601  0.76925489  0.83184757  1
  F  F140  1  0.13719102  0.44969604  0.45782790  1
  F  F141  1  0.45675760  0.85995227  0.45896337  1
  F  F142  1  0.53752223  0.33894064  0.54519123  1
  F  F143  1  0.63265929  0.55298149  0.53651394  1
