# generated using pymatgen
data_H12PbC7(I2N)2
_symmetry_space_group_name_H-M   'P 1'
_cell_length_a   13.15474923
_cell_length_b   12.58264564
_cell_length_c   10.51340294
_cell_angle_alpha   88.33039174
_cell_angle_beta   87.94387681
_cell_angle_gamma   89.34398538
_symmetry_Int_Tables_number   1
_chemical_formula_structural   H12PbC7(I2N)2
_chemical_formula_sum   'H48 Pb4 C28 I16 N8'
_cell_volume   1738.24172615
_cell_formula_units_Z   4
loop_
 _symmetry_equiv_pos_site_id
 _symmetry_equiv_pos_as_xyz
  1  'x, y, z'
loop_
 _atom_site_type_symbol
 _atom_site_label
 _atom_site_symmetry_multiplicity
 _atom_site_fract_x
 _atom_site_fract_y
 _atom_site_fract_z
 _atom_site_occupancy
  H  H0  1  0.10018789  0.26173555  0.64720226  1
  H  H1  1  0.14122084  0.25610403  0.80644702  1
  H  H2  1  0.17862813  0.36295832  0.70154320  1
  H  H3  1  0.24295618  0.12780959  0.68386364  1
  H  H4  1  0.40399454  0.18308042  0.72971506  1
  H  H5  1  0.32473241  0.23600022  0.83785894  1
  H  H6  1  0.37501614  0.31637154  0.72096111  1
  H  H7  1  0.30704041  0.06179931  0.48933030  1
  H  H8  1  0.33500241  0.09160589  0.25284228  1
  H  H9  1  0.32446118  0.26425294  0.16760771  1
  H  H10  1  0.28853779  0.41659849  0.27951319  1
  H  H11  1  0.26204410  0.40234660  0.51771338  1
  H  H12  1  0.27055421  0.90746541  0.62898765  1
  H  H13  1  0.26878678  0.86342367  0.79013450  1
  H  H14  1  0.36880492  0.82166482  0.68453271  1
  H  H15  1  0.14231855  0.76270384  0.67831864  1
  H  H16  1  0.18900707  0.59499299  0.73986772  1
  H  H17  1  0.25520148  0.67216835  0.83428404  1
  H  H18  1  0.31684609  0.61138494  0.71486420  1
  H  H19  1  0.07623291  0.70216695  0.48596233  1
  H  H20  1  0.10470302  0.67306982  0.25063171  1
  H  H21  1  0.27118547  0.67720495  0.16429249  1
  H  H22  1  0.41649668  0.70705969  0.27362646  1
  H  H23  1  0.40276054  0.73175358  0.51037778  1
  H  H24  1  0.73076734  0.40105040  0.35321868  1
  H  H25  1  0.73718385  0.35587865  0.19542631  1
  H  H26  1  0.63668746  0.31345836  0.30184259  1
  H  H27  1  0.86423619  0.25672564  0.31650067  1
  H  H28  1  0.81587242  0.08328147  0.27686253  1
  H  H29  1  0.76734439  0.16355226  0.16607535  1
  H  H30  1  0.68853662  0.11112340  0.28079794  1
  H  H31  1  0.93200639  0.19204775  0.50925515  1
  H  H32  1  0.90815835  0.17005955  0.74709495  1
  H  H33  1  0.74467281  0.18139803  0.83813088  1
  H  H34  1  0.59632908  0.21411541  0.73077072  1
  H  H35  1  0.60509617  0.23334335  0.49128303  1
  H  H36  1  0.59815947  0.73316051  0.37173807  1
  H  H37  1  0.64148541  0.73120157  0.20986204  1
  H  H38  1  0.67771191  0.62732793  0.31738390  1
  H  H39  1  0.73899636  0.86278766  0.32075788  1
  H  H40  1  0.90164686  0.80617138  0.26536142  1
  H  H41  1  0.82489559  0.74985542  0.16343877  1
  H  H42  1  0.87477220  0.67299361  0.27842642  1
  H  H43  1  0.79263120  0.93321464  0.51285226  1
  H  H44  1  0.82930560  0.90457500  0.74550332  1
  H  H45  1  0.83224186  0.73097447  0.83031069  1
  H  H46  1  0.80446649  0.57780331  0.72171162  1
  H  H47  1  0.77350748  0.59087668  0.48697298  1
  Pb  Pb48  1  0.03153898  1.00056141  -0.00178386  1
  Pb  Pb49  1  0.00353402  0.48458968  0.00791695  1
  Pb  Pb50  1  0.51440606  0.98252327  0.00116137  1
  Pb  Pb51  1  0.52543517  0.50120630  0.98160549  1
  C  C52  1  0.16414687  0.27732117  0.70770882  1
  C  C53  1  0.25626064  0.21287315  0.66404605  1
  C  C54  1  0.28111887  0.22964772  0.52291725  1
  C  C55  1  0.30250903  0.14170576  0.44748288  1
  C  C56  1  0.31867930  0.15593526  0.31735520  1
  C  C57  1  0.29287121  0.34181808  0.33328670  1
  C  C58  1  0.27745402  0.33103609  0.46392978  1
  C  C59  1  0.28714216  0.83936169  0.69242090  1
  C  C60  1  0.22325550  0.74564385  0.65735757  1
  C  C61  1  0.23738306  0.72024106  0.51737719  1
  C  C62  1  0.15279290  0.70355856  0.44324823  1
  C  C63  1  0.16636243  0.68738519  0.31399917  1
  C  C64  1  0.34467953  0.70535321  0.32772943  1
  C  C65  1  0.33441872  0.71973249  0.45759463  1
  C  C66  1  0.71785199  0.33223303  0.29455219  1
  C  C67  1  0.78367658  0.23950227  0.33847046  1
  C  C68  1  0.77033580  0.21611236  0.48052482  1
  C  C69  1  0.85619693  0.19724039  0.55372554  1
  C  C70  1  0.84520645  0.18478141  0.68451879  1
  C  C71  1  0.66682139  0.20854288  0.67443809  1
  C  C72  1  0.67455086  0.22025148  0.54297481  1
  C  C73  1  0.66288678  0.71307136  0.30815376  1
  C  C74  1  0.75398086  0.77811823  0.34199091  1
  C  C75  1  0.77962114  0.76418351  0.48101596  1
  C  C76  1  0.79531181  0.85319513  0.55458732  1
  C  C77  1  0.81570257  0.83977891  0.68235014  1
  C  C78  1  0.80280822  0.65284908  0.66817104  1
  C  C79  1  0.78412344  0.66282914  0.53967422  1
  I  I80  1  0.26152202  0.05804738  1.00084203  1
  I  I81  1  0.24486830  0.46001077  0.01086158  1
  I  I82  1  0.75499699  0.95949747  0.99532549  1
  I  I83  1  0.75679384  0.55985202  0.00034299  1
  I  I84  1  0.93397646  0.24108027  0.00933175  1
  I  I85  1  0.03437663  0.74495650  0.99454056  1
  I  I86  1  0.53458292  0.24105583  0.00215392  1
  I  I87  1  0.43579414  0.73952531  0.98353819  1
  I  I88  1  0.04637337  0.99355560  0.70164574  1
  I  I89  1  0.98155342  0.98112387  0.31146315  1
  I  I90  1  0.02161456  0.51964574  0.70157397  1
  I  I91  1  0.96412145  0.49274249  0.31194460  1
  I  I92  1  0.50429328  0.00828581  0.69997653  1
  I  I93  1  0.53806821  0.98961882  0.30956541  1
  I  I94  1  0.46742532  0.48821831  0.66960092  1
  I  I95  1  0.49690854  0.49076349  0.27094209  1
  N  N96  1  0.34599490  0.24006591  0.74208369  1
  N  N97  1  0.31238681  0.25449380  0.26452049  1
  N  N98  1  0.24847768  0.65012811  0.74107982  1
  N  N99  1  0.26098856  0.68952228  0.26045035  1
  N  N100  1  0.76119199  0.14329721  0.26220802  1
  N  N101  1  0.75165774  0.19167358  0.74074674  1
  N  N102  1  0.84475662  0.74909496  0.25770177  1
  N  N103  1  0.81773994  0.74090483  0.73500191  1
