# generated using pymatgen
data_H12PbC7(I2N)2
_symmetry_space_group_name_H-M   'P 1'
_cell_length_a   12.99888237
_cell_length_b   12.59064418
_cell_length_c   10.46964415
_cell_angle_alpha   94.39491251
_cell_angle_beta   94.35180215
_cell_angle_gamma   90.63502809
_symmetry_Int_Tables_number   1
_chemical_formula_structural   H12PbC7(I2N)2
_chemical_formula_sum   'H48 Pb4 C28 I16 N8'
_cell_volume   1703.29683700
_cell_formula_units_Z   4
loop_
 _symmetry_equiv_pos_site_id
 _symmetry_equiv_pos_as_xyz
  1  'x, y, z'
loop_
 _atom_site_type_symbol
 _atom_site_label
 _atom_site_symmetry_multiplicity
 _atom_site_fract_x
 _atom_site_fract_y
 _atom_site_fract_z
 _atom_site_occupancy
  H  H0  1  0.34573654  0.04751569  0.55859329  1
  H  H1  1  0.30576146  0.04011495  0.71473117  1
  H  H2  1  0.21065783  0.03384167  0.58136266  1
  H  H3  1  0.34964498  0.22729274  0.68153795  1
  H  H4  1  0.17725728  0.29967781  0.73910595  1
  H  H5  1  0.22350679  0.19753551  0.82199797  1
  H  H6  1  0.12899174  0.17478287  0.70717130  1
  H  H7  1  0.26528494  0.40519486  0.58830861  1
  H  H8  1  0.22872077  0.47839487  0.37380146  1
  H  H9  1  0.19857608  0.35050464  0.17714495  1
  H  H10  1  0.20810143  0.16722658  0.20185673  1
  H  H11  1  0.23861974  0.08884958  0.39102792  1
  H  H12  1  0.04216687  0.65248941  0.54421139  1
  H  H13  1  0.03930408  0.69557878  0.70824690  1
  H  H14  1  0.04191785  0.79260348  0.59300119  1
  H  H15  1  0.21483643  0.63753432  0.66626300  1
  H  H16  1  0.30338536  0.80066724  0.75967204  1
  H  H17  1  0.19141684  0.77830726  0.82521854  1
  H  H18  1  0.19784966  0.87179435  0.72155890  1
  H  H19  1  0.39595430  0.71701054  0.59129989  1
  H  H20  1  0.47359581  0.75196452  0.38810394  1
  H  H21  1  0.35667686  0.78364687  0.19141279  1
  H  H22  1  0.17783008  0.77899535  0.20824930  1
  H  H23  1  0.09524624  0.75171607  0.38944886  1
  H  H24  1  0.94676065  0.15631864  0.43563972  1
  H  H25  1  0.95600003  0.20022041  0.28079687  1
  H  H26  1  0.95978859  0.29599309  0.41568503  1
  H  H27  1  0.77412338  0.15279734  0.30813373  1
  H  H28  1  0.70366348  0.32327741  0.24472147  1
  H  H29  1  0.81134101  0.28839845  0.17604134  1
  H  H30  1  0.81853973  0.38439186  0.29346046  1
  H  H31  1  0.59968798  0.23645369  0.39967660  1
  H  H32  1  0.52477413  0.26360070  0.61247308  1
  H  H33  1  0.64450091  0.28910173  0.81417363  1
  H  H34  1  0.82207810  0.28551056  0.79377304  1
  H  H35  1  0.90243512  0.25981098  0.60627899  1
  H  H36  1  0.85720887  0.95452007  0.45937166  1
  H  H37  1  0.81466510  0.95882329  0.29503767  1
  H  H38  1  0.72254868  0.96843806  0.41263421  1
  H  H39  1  0.85210683  0.77255434  0.33788345  1
  H  H40  1  0.67267951  0.70021343  0.26424520  1
  H  H41  1  0.72067154  0.79830857  0.18000237  1
  H  H42  1  0.63262667  0.82746436  0.28306871  1
  H  H43  1  0.78664965  0.59856862  0.42636527  1
  H  H44  1  0.74153177  0.52219901  0.63020628  1
  H  H45  1  0.69445304  0.64781132  0.81460582  1
  H  H46  1  0.69618917  0.83128453  0.78945543  1
  H  H47  1  0.73175431  0.91173692  0.60833336  1
  Pb  Pb48  1  0.99531306  0.99235940  0.99217650  1
  Pb  Pb49  1  0.99227461  0.50039126  0.99208413  1
  Pb  Pb50  1  0.49911001  0.01473308  0.01143013  1
  Pb  Pb51  1  0.48561469  0.50488896  0.00007848  1
  C  C52  1  0.28451993  0.07050839  0.62121985  1
  C  C53  1  0.27682082  0.19107634  0.63655406  1
  C  C54  1  0.25204553  0.24038482  0.51029240  1
  C  C55  1  0.24947385  0.35131906  0.50214313  1
  C  C56  1  0.23050713  0.39301784  0.38306620  1
  C  C57  1  0.21347972  0.32427238  0.27355958  1
  C  C58  1  0.23708571  0.17523780  0.39711808  1
  C  C59  1  0.07048836  0.71446739  0.61826559  1
  C  C60  1  0.18747926  0.71392999  0.63243482  1
  C  C61  1  0.23840802  0.73437741  0.51083253  1
  C  C62  1  0.34628259  0.73377676  0.50653493  1
  C  C63  1  0.39064651  0.75192400  0.39316976  1
  C  C64  1  0.32780638  0.76893363  0.28370826  1
  C  C65  1  0.17892726  0.75075463  0.39844027  1
  C  C66  1  0.92481044  0.22004971  0.37371494  1
  C  C67  1  0.80820951  0.22714339  0.35681790  1
  C  C68  1  0.75795821  0.24814598  0.48244074  1
  C  C69  1  0.65034897  0.24895864  0.48771290  1
  C  C70  1  0.60757355  0.26263428  0.60591315  1
  C  C71  1  0.67153140  0.27651466  0.71820170  1
  C  C72  1  0.81875363  0.25979479  0.59792319  1
  C  C73  1  0.79456336  0.93048585  0.38646709  1
  C  C74  1  0.78240217  0.80998574  0.37337547  1
  C  C75  1  0.75942890  0.76137693  0.49663708  1
  C  C76  1  0.76341275  0.65056088  0.50689919  1
  C  C77  1  0.74039930  0.60756960  0.62043036  1
  C  C78  1  0.71401365  0.67502974  0.72305038  1
  C  C79  1  0.73544802  0.82535391  0.60357896  1
  I  I80  1  0.25383563  0.04953836  0.99247732  1
  I  I81  1  0.24831023  0.46855766  0.98635565  1
  I  I82  1  0.76176133  0.94028089  0.01213669  1
  I  I83  1  0.75217845  0.49524200  0.97852466  1
  I  I84  1  0.96203294  0.24619982  0.00815271  1
  I  I85  1  0.07105162  0.74730583  0.98935185  1
  I  I86  1  0.54681974  0.25735698  0.05462764  1
  I  I87  1  0.48993033  0.75435525  0.98331060  1
  I  I88  1  -0.00123425  0.01838583  0.68280377  1
  I  I89  1  0.05197125  0.97395207  0.28413778  1
  I  I90  1  0.02607066  0.43979989  0.69065052  1
  I  I91  1  0.97451790  0.53142177  0.29724661  1
  I  I92  1  0.53517279  0.99225168  0.71714720  1
  I  I93  1  0.50697352  0.00216687  0.31779960  1
  I  I94  1  0.46251213  0.49975472  0.69678100  1
  I  I95  1  0.56700120  0.53030702  0.30615876  1
  N  N96  1  0.19713765  0.21956648  0.73151958  1
  N  N97  1  0.21793235  0.21858047  0.28415314  1
  N  N98  1  0.22426132  0.79695323  0.74044505  1
  N  N99  1  0.22505181  0.76650175  0.29003646  1
  N  N100  1  0.78210691  0.31148156  0.26370878  1
  N  N101  1  0.77431935  0.27456428  0.71023852  1
  N  N102  1  0.69688421  0.78030613  0.26877990  1
  N  N103  1  0.71385814  0.78076219  0.71179439  1
