# generated using pymatgen
data_H15PbC12SI4N2F
_symmetry_space_group_name_H-M   'P 1'
_cell_length_a   12.35958074
_cell_length_b   12.46982380
_cell_length_c   16.65018440
_cell_angle_alpha   89.75757065
_cell_angle_beta   88.49036810
_cell_angle_gamma   89.38547005
_symmetry_Int_Tables_number   1
_chemical_formula_structural   H15PbC12SI4N2F
_chemical_formula_sum   'H60 Pb4 C48 S4 I16 N8 F4'
_cell_volume   2565.09804123
_cell_formula_units_Z   4
loop_
 _symmetry_equiv_pos_site_id
 _symmetry_equiv_pos_as_xyz
  1  'x, y, z'
loop_
 _atom_site_type_symbol
 _atom_site_label
 _atom_site_symmetry_multiplicity
 _atom_site_fract_x
 _atom_site_fract_y
 _atom_site_fract_z
 _atom_site_occupancy
  H  H0  1  0.14520455  0.31230079  0.82123831  1
  H  H1  1  0.17886022  0.18063003  0.82427469  1
  H  H2  1  0.22483040  0.26738776  0.89262359  1
  H  H3  1  0.36932979  0.22436351  0.79984178  1
  H  H4  1  0.33111147  0.36250562  0.79511550  1
  H  H5  1  0.33120662  0.10069307  0.69064741  1
  H  H6  1  0.29361404  0.07714949  0.54687702  1
  H  H7  1  0.14618068  0.05708645  0.45566550  1
  H  H8  1  0.12772107  0.30740771  0.19510626  1
  H  H9  1  0.23157532  0.38788840  0.23262800  1
  H  H10  1  0.26064448  0.17590973  0.14893530  1
  H  H11  1  0.29047746  0.29897246  0.11519306  1
  H  H12  1  0.36135006  0.24415428  0.19081994  1
  H  H13  1  0.19895351  0.41058367  0.53026447  1
  H  H14  1  0.23838556  0.43409972  0.67396961  1
  H  H15  1  0.30504856  0.85380878  0.82387976  1
  H  H16  1  0.17332828  0.82459797  0.82026043  1
  H  H17  1  0.25094336  0.77148533  0.89266038  1
  H  H18  1  0.22550960  0.63045753  0.80226530  1
  H  H19  1  0.36208474  0.67330530  0.79556432  1
  H  H20  1  0.09937553  0.66539608  0.69474325  1
  H  H21  1  0.07470992  0.70026402  0.55011293  1
  H  H22  1  0.04497361  0.83854908  0.45432869  1
  H  H23  1  0.30778837  0.87998421  0.19581222  1
  H  H24  1  0.39004186  0.77417343  0.23175540  1
  H  H25  1  0.18265135  0.75159780  0.14314728  1
  H  H26  1  0.30922090  0.72586734  0.11110977  1
  H  H27  1  0.25173134  0.64947897  0.18391366  1
  H  H28  1  0.40610499  0.80393626  0.52668874  1
  H  H29  1  0.43053771  0.76715766  0.67106366  1
  H  H30  1  0.68767019  0.35558690  0.18066464  1
  H  H31  1  0.81962506  0.32220234  0.17710702  1
  H  H32  1  0.73422248  0.27403787  0.10830421  1
  H  H33  1  0.76934636  0.13092511  0.19725492  1
  H  H34  1  0.63247105  0.17395852  0.20655106  1
  H  H35  1  0.89928215  0.16679779  0.30419407  1
  H  H36  1  0.92479870  0.20097646  0.44875503  1
  H  H37  1  0.94148895  0.35561152  0.54231193  1
  H  H38  1  0.68728663  0.37274926  0.80489594  1
  H  H39  1  0.60923333  0.26646556  0.76949980  1
  H  H40  1  0.81931171  0.24480090  0.85543052  1
  H  H41  1  0.69472253  0.21862948  0.88944402  1
  H  H42  1  0.75193741  0.14171275  0.81782620  1
  H  H43  1  0.59008130  0.29999419  0.47485411  1
  H  H44  1  0.56506472  0.26491136  0.33039108  1
  H  H45  1  0.66192341  0.68227600  0.18032619  1
  H  H46  1  0.68219673  0.81554853  0.17425596  1
  H  H47  1  0.73964412  0.73021123  0.10602682  1
  H  H48  1  0.87699933  0.78558133  0.19506671  1
  H  H49  1  0.85082474  0.64515987  0.20260823  1
  H  H50  1  0.83593720  0.90519931  0.30593162  1
  H  H51  1  0.79520760  0.92776131  0.45128345  1
  H  H52  1  0.64352091  0.94634171  0.54725205  1
  H  H53  1  0.62999646  0.69579088  0.80818068  1
  H  H54  1  0.73036972  0.61138890  0.76443195  1
  H  H55  1  0.76596985  0.81822930  0.85115601  1
  H  H56  1  0.79549165  0.69272661  0.87955365  1
  H  H57  1  0.86489669  0.74977631  0.80201622  1
  H  H58  1  0.70269964  0.59540396  0.46822162  1
  H  H59  1  0.74680131  0.57265495  0.32353564  1
  Pb  Pb60  1  0.99195548  -0.00357944  0.98555328  1
  Pb  Pb61  1  0.00362431  0.49598808  0.01057940  1
  Pb  Pb62  1  0.49014995  -0.00418398  0.01149164  1
  Pb  Pb63  1  0.50628857  0.49882826  0.00486845  1
  C  C64  1  0.30640513  0.28084501  0.78034792  1
  C  C65  1  0.28456087  0.26824434  0.69266331  1
  C  C66  1  0.30046479  0.16824273  0.65580605  1
  C  C67  1  0.27897068  0.15496987  0.57506414  1
  C  C68  1  0.24013843  0.24103803  0.52877940  1
  C  C69  1  0.21218961  0.22103322  0.44492260  1
  C  C70  1  0.16812191  0.12607266  0.41893604  1
  C  C71  1  0.19822225  0.25062582  0.30464020  1
  C  C72  1  0.20568926  0.30475174  0.22532435  1
  C  C73  1  0.22798828  0.29085305  0.37760848  1
  C  C74  1  0.22712010  0.34213243  0.56523156  1
  C  C75  1  0.24912342  0.35532550  0.64631208  1
  C  C76  1  0.27862028  0.69561511  0.78158060  1
  C  C77  1  0.26567338  0.71689964  0.69344127  1
  C  C78  1  0.16597394  0.69786471  0.65817636  1
  C  C79  1  0.15214128  0.71761513  0.57693530  1
  C  C80  1  0.23721507  0.75809030  0.52831778  1
  C  C81  1  0.21600901  0.78406040  0.44388884  1
  C  C82  1  0.11707907  0.82143578  0.41771152  1
  C  C83  1  0.24696550  0.79979508  0.30286874  1
  C  C84  1  0.30594005  0.80024279  0.22410327  1
  C  C85  1  0.28872077  0.77278030  0.37626281  1
  C  C86  1  0.33816776  0.77440642  0.56321737  1
  C  C87  1  0.35182854  0.75386223  0.64478791  1
  C  C88  1  0.71580641  0.19590444  0.21927867  1
  C  C89  1  0.73077481  0.21561928  0.30710668  1
  C  C90  1  0.83180322  0.19731173  0.34137156  1
  C  C91  1  0.84604947  0.21641542  0.42260145  1
  C  C92  1  0.75994073  0.25478286  0.47181615  1
  C  C93  1  0.78013519  0.28181358  0.55592878  1
  C  C94  1  0.87377213  0.33023706  0.58042132  1
  C  C95  1  0.74973061  0.29659344  0.69696346  1
  C  C96  1  0.69257385  0.29351222  0.77639547  1
  C  C97  1  0.71067052  0.26392665  0.62437081  1
  C  C98  1  0.65802884  0.27053931  0.43783230  1
  C  C99  1  0.64418629  0.25116015  0.35640270  1
  C  C100  1  0.81853592  0.72555492  0.21643286  1
  C  C101  1  0.79281720  0.73787696  0.30463816  1
  C  C102  1  0.80630349  0.83744063  0.34160847  1
  C  C103  1  0.78291655  0.85012091  0.42313349  1
  C  C104  1  0.74414116  0.76387562  0.47001149  1
  C  C105  1  0.71463645  0.78305459  0.55496002  1
  C  C106  1  0.66785646  0.87754332  0.58298595  1
  C  C107  1  0.70036681  0.75201230  0.69576904  1
  C  C108  1  0.70732711  0.69556758  0.77411485  1
  C  C109  1  0.73147472  0.71267783  0.62137450  1
  C  C110  1  0.73239395  0.66352382  0.43315255  1
  C  C111  1  0.75663496  0.65090877  0.35141064  1
  S  S112  1  0.14641022  0.12368122  0.31816474  1
  S  S113  1  0.11417932  0.84204617  0.31638483  1
  S  S114  1  0.87523552  0.35360786  0.68114831  1
  S  S115  1  0.64569357  0.87907501  0.68458297  1
  I  I116  1  0.24122075  0.02630492  0.05403630  1
  I  I117  1  0.25679215  0.42604565  0.00846312  1
  I  I118  1  0.74261801  0.96466082  0.94645158  1
  I  I119  1  0.75549978  0.56598712  0.99199209  1
  I  I120  1  0.95173797  0.24785833  0.97262575  1
  I  I121  1  0.04826437  0.74428854  0.02545440  1
  I  I122  1  0.56239786  0.24571882  0.00800192  1
  I  I123  1  0.43554490  0.74492284  0.99707492  1
  I  I124  1  0.03713493  0.97768602  0.78994931  1
  I  I125  1  0.94584401  0.00952729  0.16715745  1
  I  I126  1  0.03271372  0.50933308  0.82107933  1
  I  I127  1  0.96311358  0.45773785  0.20128342  1
  I  I128  1  0.43738107  0.00406842  0.82534626  1
  I  I129  1  0.54261038  0.96571452  0.19730329  1
  I  I130  1  0.49888562  0.50129025  0.81821558  1
  I  I131  1  0.53062626  0.50628337  0.20269385  1
  N  N132  1  0.20716687  0.25753881  0.83260557  1
  N  N133  1  0.28542288  0.25182013  0.16772751  1
  N  N134  1  0.24926148  0.79170275  0.83246217  1
  N  N135  1  0.25832993  0.72678143  0.16291679  1
  N  N136  1  0.74182108  0.29278787  0.16836977  1
  N  N137  1  0.74354954  0.21984105  0.83704346  1
  N  N138  1  0.71939650  0.74031585  0.16625025  1
  N  N139  1  0.78944290  0.74253502  0.82895008  1
  F  F140  1  0.27195052  0.38978665  0.38441105  1
  F  F141  1  0.39176550  0.73605853  0.38340487  1
  F  F142  1  0.61260416  0.21620804  0.61872670  1
  F  F143  1  0.77733301  0.61366426  0.61238273  1
