# generated using pymatgen
data_H16PbC9(I2N)2
_symmetry_space_group_name_H-M   'P 1'
_cell_length_a   12.60137121
_cell_length_b   12.45707143
_cell_length_c   13.30075831
_cell_angle_alpha   89.98743306
_cell_angle_beta   89.99733713
_cell_angle_gamma   89.77957517
_symmetry_Int_Tables_number   1
_chemical_formula_structural   H16PbC9(I2N)2
_chemical_formula_sum   'H64 Pb4 C36 I16 N8'
_cell_volume   2087.88674584
_cell_formula_units_Z   4
loop_
 _symmetry_equiv_pos_site_id
 _symmetry_equiv_pos_as_xyz
  1  'x, y, z'
loop_
 _atom_site_type_symbol
 _atom_site_label
 _atom_site_symmetry_multiplicity
 _atom_site_fract_x
 _atom_site_fract_y
 _atom_site_fract_z
 _atom_site_occupancy
  H  H0  1  0.22993673  0.31290547  0.86529804  1
  H  H1  1  0.11762613  0.24477318  0.85457861  1
  H  H2  1  0.23154221  0.17825831  0.86255050  1
  H  H3  1  0.15938720  0.31941069  0.69408467  1
  H  H4  1  0.16334122  0.17630018  0.69179180  1
  H  H5  1  0.36257971  0.18113141  0.71253541  1
  H  H6  1  0.35870277  0.32401551  0.71297247  1
  H  H7  1  0.31840736  0.42503226  0.55663238  1
  H  H8  1  0.31043834  0.42430267  0.37074780  1
  H  H9  1  0.34461962  0.32195778  0.21440343  1
  H  H10  1  0.34733515  0.17857965  0.21577930  1
  H  H11  1  0.19701833  0.24966813  0.12692965  1
  H  H12  1  0.15494241  0.17761719  0.22540212  1
  H  H13  1  0.14985108  0.31363733  0.22734608  1
  H  H14  1  0.31102917  0.07812714  0.37202477  1
  H  H15  1  0.31964152  0.07897350  0.55830259  1
  H  H16  1  0.32188105  0.76671855  0.86410591  1
  H  H17  1  0.25200010  0.87982808  0.85969013  1
  H  H18  1  0.18894443  0.76389004  0.86832515  1
  H  H19  1  0.31994504  0.83957402  0.69505760  1
  H  H20  1  0.17828425  0.83891962  0.69861090  1
  H  H21  1  0.18019742  0.63709751  0.71360044  1
  H  H22  1  0.32155337  0.63746594  0.71245189  1
  H  H23  1  0.42060591  0.68006599  0.55866940  1
  H  H24  1  0.42065515  0.68792572  0.37198138  1
  H  H25  1  0.31993282  0.65143798  0.21599063  1
  H  H26  1  0.17848896  0.65564931  0.21591606  1
  H  H27  1  0.24718305  0.80449197  0.12850029  1
  H  H28  1  0.19002321  0.85334875  0.23150348  1
  H  H29  1  0.32370660  0.84605835  0.22379466  1
  H  H30  1  0.07879623  0.68982543  0.37221342  1
  H  H31  1  0.07853634  0.68223793  0.55836171  1
  H  H32  1  0.68851371  0.26510561  0.13200879  1
  H  H33  1  0.75396400  0.37974052  0.14023156  1
  H  H34  1  0.82149097  0.26525119  0.13563948  1
  H  H35  1  0.68052864  0.34093767  0.30175286  1
  H  H36  1  0.82219954  0.33762637  0.30461544  1
  H  H37  1  0.81808489  0.13557022  0.28722047  1
  H  H38  1  0.67675463  0.13917907  0.28690905  1
  H  H39  1  0.57732051  0.18260023  0.44292890  1
  H  H40  1  0.57903317  0.19005534  0.62907153  1
  H  H41  1  0.68012599  0.15508133  0.78463697  1
  H  H42  1  0.82159672  0.15191324  0.78363256  1
  H  H43  1  0.74820679  0.30437060  0.87161036  1
  H  H44  1  0.82398484  0.34645021  0.77602018  1
  H  H45  1  0.69024255  0.35299022  0.76885402  1
  H  H46  1  0.92089198  0.18772143  0.62689121  1
  H  H47  1  0.91936849  0.17981228  0.44022648  1
  H  H48  1  0.73009716  0.67799751  0.13772625  1
  H  H49  1  0.61747972  0.74690225  0.14554436  1
  H  H50  1  0.73107327  0.81262713  0.13436109  1
  H  H51  1  0.66148858  0.67858354  0.30859121  1
  H  H52  1  0.66138566  0.82169240  0.30558040  1
  H  H53  1  0.86079632  0.82061552  0.28649926  1
  H  H54  1  0.86078944  0.67768974  0.28785821  1
  H  H55  1  0.81941957  0.57777508  0.44286205  1
  H  H56  1  0.81072834  0.57838860  0.62913641  1
  H  H57  1  0.84773256  0.68033923  0.78465786  1
  H  H58  1  0.84379518  0.82367534  0.78505271  1
  H  H59  1  0.69675018  0.75063548  0.87292076  1
  H  H60  1  0.64923566  0.81369845  0.77219718  1
  H  H61  1  0.65525396  0.67771479  0.77476820  1
  H  H62  1  0.81060358  0.92455809  0.62792706  1
  H  H63  1  0.81882014  0.92383874  0.44205072  1
  Pb  Pb64  1  0.99951531  0.99132020  0.00777522  1
  Pb  Pb65  1  1.00437392  0.49758384  0.00145662  1
  Pb  Pb66  1  0.50414776  -0.00233916  0.99854390  1
  Pb  Pb67  1  0.49980177  0.49131966  0.99235655  1
  C  C68  1  0.20402075  0.24841789  0.71906951  1
  C  C69  1  0.31911276  0.25173082  0.68375907  1
  C  C70  1  0.31939047  0.25199448  0.57025716  1
  C  C71  1  0.31593520  0.34867594  0.51641442  1
  C  C72  1  0.31086806  0.34833394  0.41164394  1
  C  C73  1  0.30871285  0.25103546  0.35874792  1
  C  C74  1  0.30685446  0.25002281  0.24570330  1
  C  C75  1  0.31120367  0.15426525  0.41252462  1
  C  C76  1  0.31651024  0.15482324  0.51719028  1
  C  C77  1  0.25015571  0.79557048  0.72196700  1
  C  C78  1  0.25032896  0.67976758  0.68470294  1
  C  C79  1  0.24969193  0.68077507  0.57118538  1
  C  C80  1  0.34555667  0.68335050  0.51775365  1
  C  C81  1  0.34569782  0.68826737  0.41303598  1
  C  C82  1  0.24981608  0.69103221  0.35972675  1
  C  C83  1  0.25015424  0.69312759  0.24679398  1
  C  C84  1  0.15389187  0.68941353  0.41303186  1
  C  C85  1  0.15382761  0.68451752  0.51778985  1
  C  C86  1  0.75108095  0.29560319  0.27807314  1
  C  C87  1  0.74821134  0.17984108  0.31538548  1
  C  C88  1  0.74834563  0.18081574  0.42890561  1
  C  C89  1  0.65292681  0.18471547  0.48297982  1
  C  C90  1  0.65379968  0.18957285  0.58773339  1
  C  C91  1  0.75014554  0.19104721  0.64036139  1
  C  C92  1  0.75129894  0.19309878  0.75328842  1
  C  C93  1  0.84560258  0.18815227  0.58636954  1
  C  C94  1  0.84464041  0.18321893  0.48166517  1
  C  C95  1  0.70408997  0.74939316  0.28091227  1
  C  C96  1  0.81925377  0.74965196  0.31616888  1
  C  C97  1  0.81952000  0.75068803  0.42966519  1
  C  C98  1  0.81642426  0.65394146  0.48342386  1
  C  C99  1  0.81105011  0.65421119  0.58808689  1
  C  C100  1  0.80864489  0.75138397  0.64116595  1
  C  C101  1  0.80666886  0.75120220  0.75420454  1
  C  C102  1  0.81099181  0.84827783  0.58757508  1
  C  C103  1  0.81618058  0.84778842  0.48281389  1
  I  I104  1  0.25659800  0.04044142  1.00144374  1
  I  I105  1  0.25513090  0.44594097  0.00464622  1
  I  I106  1  0.75496169  0.94581853  0.99453471  1
  I  I107  1  0.75683398  0.54045111  -0.00083163  1
  I  I108  1  0.95972316  0.24209808  0.99655448  1
  I  I109  1  0.06073223  0.74301088  0.01702326  1
  I  I110  1  0.56104667  0.24304354  0.98323480  1
  I  I111  1  0.46016117  0.74218868  0.00263157  1
  I  I112  1  0.01985181  0.99695573  0.77315037  1
  I  I113  1  0.04415328  0.00474923  0.25291298  1
  I  I114  1  0.98897713  0.46906826  0.76076836  1
  I  I115  1  0.01078273  0.46790548  0.24088515  1
  I  I116  1  0.50975068  0.96848738  0.75916514  1
  I  I117  1  0.48819929  0.96808306  0.23928300  1
  I  I118  1  0.54508604  0.50452728  0.74730508  1
  I  I119  1  0.51975414  0.49715840  0.22697778  1
  N  N120  1  0.19601688  0.24595660  0.83102402  1
  N  N121  1  0.19521970  0.24748877  0.20448580  1
  N  N122  1  0.25343067  0.80113327  0.83420582  1
  N  N123  1  0.25321933  0.80616717  0.20592728  1
  N  N124  1  0.75389544  0.30105292  0.16581985  1
  N  N125  1  0.75383036  0.30614233  0.79415575  1
  N  N126  1  0.69591751  0.74654367  0.16898144  1
  N  N127  1  0.69502037  0.74798727  0.79537041  1
