# generated using pymatgen
data_H18PbC10(I2N)2
_symmetry_space_group_name_H-M   'P 1'
_cell_length_a   13.14196719
_cell_length_b   13.10056861
_cell_length_c   12.94611292
_cell_angle_alpha   90.30648595
_cell_angle_beta   92.54151676
_cell_angle_gamma   87.80473017
_symmetry_Int_Tables_number   1
_chemical_formula_structural   H18PbC10(I2N)2
_chemical_formula_sum   'H72 Pb4 C40 I16 N8'
_cell_volume   2225.05502192
_cell_formula_units_Z   4
loop_
 _symmetry_equiv_pos_site_id
 _symmetry_equiv_pos_as_xyz
  1  'x, y, z'
loop_
 _atom_site_type_symbol
 _atom_site_label
 _atom_site_symmetry_multiplicity
 _atom_site_fract_x
 _atom_site_fract_y
 _atom_site_fract_z
 _atom_site_occupancy
  H  H0  1  0.43410997  0.24500298  0.82469671  1
  H  H1  1  0.46322592  0.24716559  0.69238547  1
  H  H2  1  0.39936948  0.14200283  0.74050832  1
  H  H3  1  0.31505162  0.36400275  0.73082707  1
  H  H4  1  0.22389305  0.17433538  0.80243061  1
  H  H5  1  0.24107457  0.28499257  0.86377674  1
  H  H6  1  0.15429436  0.27929826  0.76655395  1
  H  H7  1  0.27980971  0.42426195  0.56822501  1
  H  H8  1  0.23490417  0.40058970  0.38272213  1
  H  H9  1  0.18498672  0.13594737  0.26915586  1
  H  H10  1  0.10075285  0.35797381  0.25945265  1
  H  H11  1  0.06597529  0.25498570  0.17526456  1
  H  H12  1  0.03686870  0.25282930  0.30757374  1
  H  H13  1  0.34575516  0.22046665  0.23325860  1
  H  H14  1  0.25888935  0.21492931  0.13611523  1
  H  H15  1  0.27623577  0.32553432  0.19747754  1
  H  H16  1  0.22028977  0.07570971  0.43172356  1
  H  H17  1  0.26518539  0.09938713  0.61722544  1
  H  H18  1  0.23693268  0.57441245  0.82269734  1
  H  H19  1  0.23012158  0.53875856  0.69046663  1
  H  H20  1  0.13586738  0.62375680  0.73875885  1
  H  H21  1  0.36373518  0.66696652  0.72908156  1
  H  H22  1  0.19023229  0.80113884  0.79267388  1
  H  H23  1  0.28804090  0.75388484  0.86537228  1
  H  H24  1  0.31175599  0.83856686  0.77441207  1
  H  H25  1  0.42519364  0.71677614  0.57457654  1
  H  H26  1  0.40015252  0.76490417  0.39126714  1
  H  H27  1  0.13625499  0.83318401  0.27100716  1
  H  H28  1  0.36414161  0.87626817  0.26124500  1
  H  H29  1  0.26306655  0.92566584  0.17734417  1
  H  H30  1  0.26993989  0.96129903  0.30957814  1
  H  H31  1  0.18805703  0.66157196  0.22558181  1
  H  H32  1  0.21189683  0.74625753  0.13465174  1
  H  H33  1  0.30962583  0.69888080  0.20734785  1
  H  H34  1  0.07481032  0.78329254  0.42545816  1
  H  H35  1  0.09985503  0.73515578  0.60876777  1
  H  H36  1  0.76318249  0.07771146  0.17306925  1
  H  H37  1  0.76752466  0.04022832  0.30431800  1
  H  H38  1  0.86326866  0.11804918  0.25905977  1
  H  H39  1  0.63558917  0.17960480  0.26867886  1
  H  H40  1  0.81138884  0.29527581  0.20297280  1
  H  H41  1  0.70515113  0.26386501  0.13627889  1
  H  H42  1  0.69623993  0.34957190  0.23231464  1
  H  H43  1  0.57431776  0.23608480  0.42350226  1
  H  H44  1  0.60018984  0.28074411  0.60794789  1
  H  H45  1  0.86433550  0.32023079  0.73134479  1
  H  H46  1  0.63668896  0.38199309  0.74086209  1
  H  H47  1  0.73678344  0.42223594  0.82689854  1
  H  H48  1  0.73252697  0.45972913  0.69565704  1
  H  H49  1  0.80374625  0.15041883  0.76778677  1
  H  H50  1  0.79439562  0.23612614  0.86376531  1
  H  H51  1  0.68840550  0.20452867  0.79671376  1
  H  H52  1  0.92560655  0.26388053  0.57646160  1
  H  H53  1  0.89973228  0.21924953  0.39200602  1
  H  H54  1  0.90783811  0.77775776  0.17246972  1
  H  H55  1  0.95207106  0.78020062  0.30303828  1
  H  H56  1  0.86358504  0.87637733  0.25610167  1
  H  H57  1  0.82313753  0.64690363  0.26891676  1
  H  H58  1  0.67567750  0.82266787  0.22051632  1
  H  H59  1  0.72417232  0.73497124  0.13691129  1
  H  H60  1  0.65031580  0.69854538  0.22914427  1
  H  H61  1  0.76637435  0.57741817  0.42045830  1
  H  H62  1  0.72370750  0.59489306  0.60327648  1
  H  H63  1  0.67705509  0.85302913  0.73124944  1
  H  H64  1  0.63634237  0.62360307  0.74390298  1
  H  H65  1  0.59213898  0.72222666  0.82754718  1
  H  H66  1  0.54797063  0.71988159  0.69695191  1
  H  H67  1  0.84981974  0.80110126  0.77109611  1
  H  H68  1  0.77584726  0.76471404  0.86323485  1
  H  H69  1  0.82426489  0.67704810  0.77961203  1
  H  H70  1  0.73372420  0.92252928  0.57965330  1
  H  H71  1  0.77639181  0.90505218  0.39683037  1
  Pb  Pb72  1  0.98833150  0.99186496  0.97143841  1
  Pb  Pb73  1  0.00067884  0.50352124  0.00313919  1
  Pb  Pb74  1  0.49923412  0.99629556  0.99693814  1
  Pb  Pb75  1  0.51186769  0.50841996  0.02850496  1
  C  C76  1  0.40606895  0.22511499  0.74644875  1
  C  C77  1  0.30643007  0.28186877  0.71699352  1
  C  C78  1  0.27318684  0.26433987  0.60572396  1
  C  C79  1  0.26603145  0.34780464  0.53825341  1
  C  C80  1  0.24270743  0.33399598  0.43324786  1
  C  C81  1  0.22693531  0.23563364  0.39421363  1
  C  C82  1  0.19365054  0.21807935  0.28295670  1
  C  C83  1  0.09403032  0.27486587  0.25350985  1
  C  C84  1  0.23408922  0.15216456  0.46169487  1
  C  C85  1  0.25740887  0.16596643  0.56668716  1
  C  C86  1  0.21734125  0.60238089  0.74429011  1
  C  C87  1  0.28289399  0.68976556  0.71580100  1
  C  C88  1  0.26491152  0.72372284  0.60498850  1
  C  C89  1  0.34814691  0.73138494  0.54192045  1
  C  C90  1  0.33372376  0.75760827  0.43802197  1
  C  C91  1  0.23509633  0.77634763  0.39504609  1
  C  C92  1  0.21708727  0.81032922  0.28424548  1
  C  C93  1  0.28267471  0.89768004  0.25574301  1
  C  C94  1  0.15185571  0.76868317  0.45812024  1
  C  C95  1  0.16627603  0.74245897  0.56200755  1
  C  C96  1  0.78175363  0.10328546  0.25229132  1
  C  C97  1  0.71659407  0.19535454  0.28278806  1
  C  C98  1  0.73476314  0.22590465  0.39451448  1
  C  C99  1  0.65144167  0.24202390  0.45710891  1
  C  C100  1  0.66644479  0.26610367  0.56144909  1
  C  C101  1  0.76516121  0.27404193  0.60545393  1
  C  C102  1  0.78331683  0.30456482  0.71719347  1
  C  C103  1  0.71821920  0.39668279  0.74766867  1
  C  C104  1  0.84848365  0.25794646  0.54285556  1
  C  C105  1  0.83347981  0.23387067  0.43851146  1
  C  C106  1  0.88488490  0.79489909  0.25140154  1
  C  C107  1  0.80084497  0.72727218  0.28358486  1
  C  C108  1  0.77398796  0.73983373  0.39546926  1
  C  C109  1  0.75922754  0.65328840  0.45518565  1
  C  C110  1  0.73541565  0.66336030  0.55862036  1
  C  C111  1  0.72614389  0.76011319  0.60465218  1
  C  C112  1  0.69925187  0.77264624  0.71652674  1
  C  C113  1  0.61511460  0.70509696  0.74862182  1
  C  C114  1  0.74089981  0.84665556  0.54493912  1
  C  C115  1  0.76470905  0.83658122  0.44149370  1
  I  I116  1  0.26616702  0.07172036  0.99397480  1
  I  I117  1  0.23366678  0.42803886  0.00596175  1
  I  I118  1  0.75676611  0.93686545  0.97839812  1
  I  I119  1  0.74324365  0.56417010  0.02054746  1
  I  I120  1  0.92738019  0.27419409  1.00020959  1
  I  I121  1  0.06518947  0.76277787  0.97129003  1
  I  I122  1  0.57171234  0.22594341  0.00041633  1
  I  I123  1  0.43418801  0.73725734  0.02847273  1
  I  I124  1  0.96721570  0.02378506  0.72188644  1
  I  I125  1  0.03377784  0.01002776  0.20421960  1
  I  I126  1  0.95358466  0.52629544  0.75961181  1
  I  I127  1  0.03978846  0.55664064  0.24807900  1
  I  I128  1  0.46029533  0.94335081  0.75200681  1
  I  I129  1  0.54660965  0.97332254  0.24041240  1
  I  I130  1  0.46618590  0.48997799  0.79580258  1
  I  I131  1  0.53377588  0.47756165  0.27820597  1
  N  N132  1  0.22578033  0.25234365  0.79098176  1
  N  N133  1  0.27428394  0.24752928  0.20891199  1
  N  N134  1  0.26579171  0.77717293  0.79094068  1
  N  N135  1  0.23409034  0.72292900  0.20907478  1
  N  N136  1  0.73509599  0.28270080  0.21010359  1
  N  N137  1  0.76470186  0.21722956  0.78986378  1
  N  N138  1  0.70667523  0.74814884  0.21337602  1
  N  N139  1  0.79336853  0.75159723  0.78677610  1
