# generated using pymatgen
data_H14PbC7S(I2N)2
_symmetry_space_group_name_H-M   'P 1'
_cell_length_a   12.95379895
_cell_length_b   12.90830946
_cell_length_c   12.23732718
_cell_angle_alpha   90.13206318
_cell_angle_beta   89.11468512
_cell_angle_gamma   89.70417868
_symmetry_Int_Tables_number   1
_chemical_formula_structural   H14PbC7S(I2N)2
_chemical_formula_sum   'H56 Pb4 C28 S4 I16 N8'
_cell_volume   2045.94625948
_cell_formula_units_Z   4
loop_
 _symmetry_equiv_pos_site_id
 _symmetry_equiv_pos_as_xyz
  1  'x, y, z'
loop_
 _atom_site_type_symbol
 _atom_site_label
 _atom_site_symmetry_multiplicity
 _atom_site_fract_x
 _atom_site_fract_y
 _atom_site_fract_z
 _atom_site_occupancy
  H  H0  1  0.07187347  0.27234061  0.68250820  1
  H  H1  1  0.14191196  0.17097421  0.74580511  1
  H  H2  1  0.10711735  0.28467651  0.82090010  1
  H  H3  1  0.22029241  0.39152694  0.69915819  1
  H  H4  1  0.34062768  0.21364428  0.78923493  1
  H  H5  1  0.28758611  0.31236232  0.86323672  1
  H  H6  1  0.37854398  0.33725973  0.76914754  1
  H  H7  1  0.25034349  0.10029969  0.61396184  1
  H  H8  1  0.32065423  0.07711467  0.41136820  1
  H  H9  1  0.40939967  0.18825213  0.25956052  1
  H  H10  1  0.42465390  0.32441610  0.28263506  1
  H  H11  1  0.23607985  0.33900763  0.23464206  1
  H  H12  1  0.31983958  0.31071093  0.13499997  1
  H  H13  1  0.24656554  0.21676116  0.18550642  1
  H  H14  1  0.27881405  0.92358528  0.68285004  1
  H  H15  1  0.17628770  0.85727342  0.74919400  1
  H  H16  1  0.29216279  0.88502924  0.82050686  1
  H  H17  1  0.39261123  0.76699635  0.69665588  1
  H  H18  1  0.20838627  0.65624718  0.78653008  1
  H  H19  1  0.31047858  0.69923386  0.85934087  1
  H  H20  1  0.32880758  0.60948842  0.76292334  1
  H  H21  1  0.10117525  0.75121111  0.61816383  1
  H  H22  1  0.07410667  0.68214809  0.41741405  1
  H  H23  1  0.18035033  0.59276550  0.26185092  1
  H  H24  1  0.31644598  0.57345586  0.27899320  1
  H  H25  1  0.34119394  0.75509426  0.22635279  1
  H  H26  1  0.29061540  0.68247889  0.12939326  1
  H  H27  1  0.21526561  0.76534436  0.19956564  1
  H  H28  1  0.72668021  0.42186025  0.32581916  1
  H  H29  1  0.82778056  0.35430751  0.25656341  1
  H  H30  1  0.71355531  0.38953623  0.18577791  1
  H  H31  1  0.60898134  0.27171548  0.30412475  1
  H  H32  1  0.78881316  0.16014246  0.20317941  1
  H  H33  1  0.68488251  0.20714489  0.13798488  1
  H  H34  1  0.66929587  0.11315517  0.23010166  1
  H  H35  1  0.90000022  0.23757283  0.38174632  1
  H  H36  1  0.92214607  0.16825740  0.58311746  1
  H  H37  1  0.81539732  0.08417916  0.73498472  1
  H  H38  1  0.68060088  0.06205458  0.71428389  1
  H  H39  1  0.64428428  0.23435334  0.78101360  1
  H  H40  1  0.70781666  0.16133856  0.87014250  1
  H  H41  1  0.77099563  0.25460583  0.80394038  1
  H  H42  1  0.57853318  0.73277339  0.31934067  1
  H  H43  1  0.65100241  0.83068988  0.25253788  1
  H  H44  1  0.61686589  0.71561162  0.18080966  1
  H  H45  1  0.72817339  0.60958401  0.30111890  1
  H  H46  1  0.84733336  0.78919064  0.21272425  1
  H  H47  1  0.80011224  0.68982166  0.13797467  1
  H  H48  1  0.88859165  0.66579249  0.23162164  1
  H  H49  1  0.75270729  0.90090397  0.38529695  1
  H  H50  1  0.82539665  0.92650780  0.58334929  1
  H  H51  1  0.92135181  0.81863807  0.72826024  1
  H  H52  1  0.93112797  0.68088333  0.71349970  1
  H  H53  1  0.75885005  0.66595212  0.79088307  1
  H  H54  1  0.83769915  0.73032493  0.87163367  1
  H  H55  1  0.74830348  0.79548334  0.80330319  1
  Pb  Pb56  1  0.00862421  1.00172420  0.00525521  1
  Pb  Pb57  1  0.00003730  0.48233256  -0.00043341  1
  Pb  Pb58  1  0.49131542  0.99976492  0.00134830  1
  Pb  Pb59  1  0.51158389  0.50340088  0.99478153  1
  C  C60  1  0.13300810  0.25525799  0.74081800  1
  C  C61  1  0.23175594  0.30706034  0.70203481  1
  C  C62  1  0.26765609  0.26654489  0.59298234  1
  C  C63  1  0.27209740  0.16407970  0.56057106  1
  C  C64  1  0.30829703  0.15142396  0.45189786  1
  C  C65  1  0.33009344  0.24451630  0.40146423  1
  C  C66  1  0.37062798  0.25924941  0.28878057  1
  C  C67  1  0.26055481  0.86206367  0.74144721  1
  C  C68  1  0.30791305  0.76124549  0.70003068  1
  C  C69  1  0.26634887  0.72979853  0.59133500  1
  C  C70  1  0.16367935  0.72794262  0.56287837  1
  C  C71  1  0.14899794  0.69252460  0.45500529  1
  C  C72  1  0.24070200  0.66864274  0.40146174  1
  C  C73  1  0.25236320  0.62905587  0.28832838  1
  C  C74  1  0.74376653  0.36238544  0.26394696  1
  C  C75  1  0.69335461  0.26194780  0.29994845  1
  C  C76  1  0.73366544  0.22480408  0.40716600  1
  C  C77  1  0.83595743  0.21804159  0.43642271  1
  C  C78  1  0.84817452  0.18238990  0.54455539  1
  C  C79  1  0.75519196  0.16301730  0.59732312  1
  C  C80  1  0.74250466  0.11961425  0.70879805  1
  C  C81  1  0.64097067  0.74677468  0.25982873  1
  C  C82  1  0.73852831  0.69409678  0.29911933  1
  C  C83  1  0.77114348  0.73457668  0.40809175  1
  C  C84  1  0.77437462  0.83749076  0.43881294  1
  C  C85  1  0.81162461  0.85146084  0.54555299  1
  C  C86  1  0.83450595  0.75910182  0.59677578  1
  C  C87  1  0.87894209  0.74793307  0.70684818  1
  S  S88  1  0.30833972  0.34757480  0.48950176  1
  S  S89  1  0.34510809  0.68730912  0.48564413  1
  S  S90  1  0.65236823  0.18673612  0.51217519  1
  S  S91  1  0.81312323  0.65478821  0.51119742  1
  I  I92  1  0.24155861  0.07152563  0.03112354  1
  I  I93  1  0.25517640  0.47991410  0.00707146  1
  I  I94  1  0.73208798  0.96904565  0.97264412  1
  I  I95  1  0.75333480  0.54229441  0.99046728  1
  I  I96  1  0.92177601  0.24768229  0.99860282  1
  I  I97  1  0.02337043  0.74769279  0.99792485  1
  I  I98  1  0.52581427  0.25851959  0.01397529  1
  I  I99  1  0.45620355  0.75378002  0.98762127  1
  I  I100  1  0.00618967  0.00106300  0.74560297  1
  I  I101  1  0.94583925  0.98437630  0.25370846  1
  I  I102  1  0.03645277  0.51479181  0.74540190  1
  I  I103  1  0.99778596  0.49900978  0.26259094  1
  I  I104  1  0.46920462  0.05888224  0.74876825  1
  I  I105  1  0.50883313  0.00077049  0.26232471  1
  I  I106  1  0.49233873  0.49193966  0.72807934  1
  I  I107  1  0.50561765  0.50895603  0.25207169  1
  N  N108  1  0.31480603  0.29031673  0.78670348  1
  N  N109  1  0.28706174  0.28300621  0.20698785  1
  N  N110  1  0.28592822  0.67587037  0.78255077  1
  N  N111  1  0.27608502  0.71412133  0.20616666  1
  N  N112  1  0.71165157  0.17997214  0.21224188  1
  N  N113  1  0.71450323  0.19932151  0.79551157  1
  N  N114  1  0.82433521  0.71209057  0.21498480  1
  N  N115  1  0.79950934  0.73407223  0.79764461  1
