# generated using pymatgen
data_H16PbC9(I2N)2
_symmetry_space_group_name_H-M   'P 1'
_cell_length_a   13.08882711
_cell_length_b   12.78958945
_cell_length_c   12.72666946
_cell_angle_alpha   90.86964827
_cell_angle_beta   90.41921795
_cell_angle_gamma   90.68006859
_symmetry_Int_Tables_number   1
_chemical_formula_structural   H16PbC9(I2N)2
_chemical_formula_sum   'H64 Pb4 C36 I16 N8'
_cell_volume   2129.99836079
_cell_formula_units_Z   4
loop_
 _symmetry_equiv_pos_site_id
 _symmetry_equiv_pos_as_xyz
  1  'x, y, z'
loop_
 _atom_site_type_symbol
 _atom_site_label
 _atom_site_symmetry_multiplicity
 _atom_site_fract_x
 _atom_site_fract_y
 _atom_site_fract_z
 _atom_site_occupancy
  H  H0  1  0.42011755  0.22582023  0.68508794  1
  H  H1  1  0.33927434  0.12517526  0.73145726  1
  H  H2  1  0.38865991  0.22227494  0.82019390  1
  H  H3  1  0.28540470  0.35821938  0.73666630  1
  H  H4  1  0.20690740  0.25017301  0.86810782  1
  H  H5  1  0.15273788  0.17100468  0.77632259  1
  H  H6  1  0.12145235  0.29941081  0.78464603  1
  H  H7  1  0.23020549  0.43520313  0.58613108  1
  H  H8  1  0.16952703  0.42684634  0.40060382  1
  H  H9  1  0.06743519  0.18822796  0.27480729  1
  H  H10  1  0.08408172  0.32669765  0.26387676  1
  H  H11  1  0.16221199  0.22542950  0.12837268  1
  H  H12  1  0.24954415  0.29789895  0.19133730  1
  H  H13  1  0.24164425  0.16756248  0.21095077  1
  H  H14  1  0.16526767  0.09005771  0.41240039  1
  H  H15  1  0.22650162  0.09831896  0.59583967  1
  H  H16  1  0.21781995  0.57779764  0.68625856  1
  H  H17  1  0.12346997  0.66433211  0.73348419  1
  H  H18  1  0.21567099  0.61251234  0.82123005  1
  H  H19  1  0.35530428  0.70711257  0.73589806  1
  H  H20  1  0.24766857  0.79999555  0.86704363  1
  H  H21  1  0.19190234  0.86519002  0.77014466  1
  H  H22  1  0.31913317  0.87658000  0.78977439  1
  H  H23  1  0.43557031  0.76623637  0.58805369  1
  H  H24  1  0.43211877  0.82611175  0.40363782  1
  H  H25  1  0.20696725  0.93107686  0.27506204  1
  H  H26  1  0.34212530  0.91194030  0.26850389  1
  H  H27  1  0.25081468  0.83113846  0.12789360  1
  H  H28  1  0.30582532  0.73736893  0.19821398  1
  H  H29  1  0.17959461  0.75744653  0.20503813  1
  H  H30  1  0.10297729  0.83340820  0.41200271  1
  H  H31  1  0.10633754  0.77387396  0.59553933  1
  H  H32  1  0.78376481  0.07889633  0.30865936  1
  H  H33  1  0.87762160  0.16735785  0.26187496  1
  H  H34  1  0.78432856  0.11278124  0.17428545  1
  H  H35  1  0.64623350  0.20689023  0.26243049  1
  H  H36  1  0.73838086  0.30001337  0.13201954  1
  H  H37  1  0.81802941  0.35752688  0.22176210  1
  H  H38  1  0.69169293  0.38202879  0.22206585  1
  H  H39  1  0.56731051  0.27130332  0.41115454  1
  H  H40  1  0.57385338  0.33423303  0.59715117  1
  H  H41  1  0.80363824  0.43855326  0.72510452  1
  H  H42  1  0.66852262  0.41655834  0.73651966  1
  H  H43  1  0.76527162  0.33729771  0.87054133  1
  H  H44  1  0.70477860  0.24425158  0.80103834  1
  H  H45  1  0.83167491  0.26429802  0.78611417  1
  H  H46  1  0.90303964  0.33487979  0.58739376  1
  H  H47  1  0.89667944  0.27275329  0.40335873  1
  H  H48  1  0.91811882  0.77412370  0.31475298  1
  H  H49  1  0.83640381  0.87410930  0.27056134  1
  H  H50  1  0.88316867  0.77924236  0.18017784  1
  H  H51  1  0.78430992  0.63910299  0.26477033  1
  H  H52  1  0.70171992  0.75114726  0.13441701  1
  H  H53  1  0.64282893  0.81754854  0.22970167  1
  H  H54  1  0.62172846  0.68659732  0.21371760  1
  H  H55  1  0.73061290  0.55957489  0.41440122  1
  H  H56  1  0.67012730  0.56595760  0.59865251  1
  H  H57  1  0.57155838  0.80147680  0.72743133  1
  H  H58  1  0.58283415  0.66239389  0.73264411  1
  H  H59  1  0.66568164  0.75097609  0.87386314  1
  H  H60  1  0.75352989  0.68860321  0.80481534  1
  H  H61  1  0.74235052  0.81948350  0.79797175  1
  H  H62  1  0.66566954  0.90268123  0.58939346  1
  H  H63  1  0.72398061  0.89652029  0.40543008  1
  Pb  Pb64  1  0.99437874  0.99217249  0.98409185  1
  Pb  Pb65  1  0.99701926  0.50617140  0.00497565  1
  Pb  Pb66  1  0.51325673  0.00890770  0.00776787  1
  Pb  Pb67  1  0.48409357  0.49393797  -0.00069635  1
  C  C68  1  0.35859717  0.20845995  0.74032161  1
  C  C69  1  0.26725632  0.27604391  0.71731945  1
  C  C70  1  0.23152949  0.26804522  0.60414235  1
  C  C71  1  0.21660137  0.35963533  0.54757199  1
  C  C72  1  0.18386494  0.35500782  0.44317586  1
  C  C73  1  0.16538832  0.25811396  0.39355851  1
  C  C74  1  0.12199665  0.25359453  0.28433912  1
  C  C75  1  0.18161385  0.16599030  0.44961154  1
  C  C76  1  0.21513159  0.17090965  0.55370828  1
  C  C77  1  0.20378116  0.64228325  0.74170429  1
  C  C78  1  0.27698217  0.73135163  0.71756199  1
  C  C79  1  0.27181019  0.76601025  0.60457126  1
  C  C80  1  0.36263449  0.77985925  0.54917766  1
  C  C81  1  0.36081376  0.81216847  0.44526567  1
  C  C82  1  0.26768689  0.83128730  0.39484571  1
  C  C83  1  0.26845642  0.87455059  0.28614750  1
  C  C84  1  0.17604077  0.81669324  0.44981830  1
  C  C85  1  0.17816190  0.78389933  0.55379848  1
  C  C86  1  0.79722557  0.14331046  0.25442059  1
  C  C87  1  0.72509579  0.23163639  0.28102338  1
  C  C88  1  0.73104584  0.26778328  0.39454456  1
  C  C89  1  0.64079992  0.28437786  0.45032100  1
  C  C90  1  0.64438641  0.31855725  0.55477631  1
  C  C91  1  0.73855436  0.33678113  0.60501081  1
  C  C92  1  0.74146666  0.38089992  0.71485464  1
  C  C93  1  0.82924607  0.31932347  0.54949910  1
  C  C94  1  0.82533348  0.28494200  0.44526452  1
  C  C95  1  0.85526640  0.79128198  0.26057014  1
  C  C96  1  0.76509238  0.72051361  0.28404728  1
  C  C97  1  0.73114434  0.72709254  0.39723109  1
  C  C98  1  0.71748765  0.63472901  0.45316226  1
  C  C99  1  0.68509190  0.63837511  0.55704302  1
  C  C100  1  0.66665187  0.73438861  0.60716648  1
  C  C101  1  0.62367175  0.73565938  0.71581327  1
  C  C102  1  0.68182704  0.82738770  0.55183148  1
  C  C103  1  0.71409460  0.82359232  0.44771224  1
  I  I104  1  0.27144637  0.02064393  0.01709681  1
  I  I105  1  0.25116252  0.44627111  0.03314019  1
  I  I106  1  0.76079019  0.94076165  0.99280248  1
  I  I107  1  0.75751520  0.53418504  0.97307810  1
  I  I108  1  0.98274204  0.24209437  0.01027706  1
  I  I109  1  0.06643016  0.74504316  0.99155290  1
  I  I110  1  0.57617855  0.24993609  0.99640455  1
  I  I111  1  0.48046653  0.74428288  0.99646508  1
  I  I112  1  0.04822217  0.99850620  0.73476584  1
  I  I113  1  0.02659174  0.98969520  0.22549269  1
  I  I114  1  0.01092377  0.44889394  0.75821694  1
  I  I115  1  0.96264429  0.50173415  0.25266388  1
  I  I116  1  0.50399163  0.98594404  0.76079972  1
  I  I117  1  0.54304117  0.98783447  0.25862947  1
  I  I118  1  0.46385245  0.48949249  0.75248383  1
  I  I119  1  0.53770521  0.50572551  0.24839354  1
  N  N120  1  0.18176667  0.24629409  0.79119340  1
  N  N121  1  0.20038156  0.23468232  0.19997388  1
  N  N122  1  0.25777370  0.82411157  0.79064897  1
  N  N123  1  0.25020162  0.79361935  0.19990747  1
  N  N124  1  0.74584864  0.32353410  0.20988830  1
  N  N125  1  0.76227894  0.29990829  0.79742219  1
  N  N126  1  0.67710721  0.74602006  0.21101623  1
  N  N127  1  0.70259375  0.74950431  0.80185972  1
