# generated using pymatgen
data_H13PbC10SI4N2F
_symmetry_space_group_name_H-M   'P 1'
_cell_length_a   12.67960835
_cell_length_b   12.26056023
_cell_length_c   14.67822664
_cell_angle_alpha   88.92030328
_cell_angle_beta   88.61240754
_cell_angle_gamma   88.40686792
_symmetry_Int_Tables_number   1
_chemical_formula_structural   H13PbC10SI4N2F
_chemical_formula_sum   'H52 Pb4 C40 S4 I16 N8 F4'
_cell_volume   2279.93604492
_cell_formula_units_Z   4
loop_
 _symmetry_equiv_pos_site_id
 _symmetry_equiv_pos_as_xyz
  1  'x, y, z'
loop_
 _atom_site_type_symbol
 _atom_site_label
 _atom_site_symmetry_multiplicity
 _atom_site_fract_x
 _atom_site_fract_y
 _atom_site_fract_z
 _atom_site_occupancy
  H  H0  1  0.20701269  0.28449501  0.84126590  1
  H  H1  1  0.18662245  0.16093670  0.80053557  1
  H  H2  1  0.27022687  0.17570874  0.88455877  1
  H  H3  1  0.38198677  0.29061086  0.78190713  1
  H  H4  1  0.38036959  0.14793153  0.75991243  1
  H  H5  1  0.30341068  0.42408926  0.68031970  1
  H  H6  1  0.25875993  0.47252014  0.51979883  1
  H  H7  1  0.15243900  0.25171500  0.21827940  1
  H  H8  1  0.19836810  0.11424975  0.22626039  1
  H  H9  1  0.29971772  0.21761974  0.11802324  1
  H  H10  1  0.37678289  0.17153862  0.20098052  1
  H  H11  1  0.34097533  0.30510092  0.19667514  1
  H  H12  1  0.29658474  0.08002611  0.62282024  1
  H  H13  1  0.27191082  0.81943659  0.81304283  1
  H  H14  1  0.14345755  0.81909094  0.78724477  1
  H  H15  1  0.18234072  0.75213227  0.88020833  1
  H  H16  1  0.29267165  0.62542379  0.78989204  1
  H  H17  1  0.15463751  0.61987527  0.76843690  1
  H  H18  1  0.41567994  0.69110487  0.67803035  1
  H  H19  1  0.45927272  0.73394408  0.51483237  1
  H  H20  1  0.23898559  0.84742487  0.21164626  1
  H  H21  1  0.10717928  0.80516559  0.22365056  1
  H  H22  1  0.20336878  0.69018173  0.12202987  1
  H  H23  1  0.17069261  0.61540228  0.21292324  1
  H  H24  1  0.29613758  0.65481451  0.19928588  1
  H  H25  1  0.08221537  0.70293622  0.62451939  1
  H  H26  1  0.70058312  0.34570933  0.19613602  1
  H  H27  1  0.83249229  0.34779265  0.20774062  1
  H  H28  1  0.78041857  0.28879844  0.11895859  1
  H  H29  1  0.70298137  0.14635790  0.21218851  1
  H  H30  1  0.84186218  0.15000211  0.22741844  1
  H  H31  1  0.57859216  0.20403026  0.32837778  1
  H  H32  1  0.53894364  0.23454582  0.49345293  1
  H  H33  1  0.77366784  0.38241629  0.77282193  1
  H  H34  1  0.90087848  0.31953044  0.76753507  1
  H  H35  1  0.79574879  0.24682857  0.88747464  1
  H  H36  1  0.82255221  0.14719948  0.81278576  1
  H  H37  1  0.70117810  0.20866110  0.81939621  1
  H  H38  1  0.91351918  0.21915470  0.37227963  1
  H  H39  1  0.67156250  0.72771885  0.18190733  1
  H  H40  1  0.65988991  0.85720094  0.21489793  1
  H  H41  1  0.72745820  0.82606922  0.12056478  1
  H  H42  1  0.85887155  0.71757633  0.20675124  1
  H  H43  1  0.85592647  0.86013613  0.22909491  1
  H  H44  1  0.79477209  0.58514619  0.31896417  1
  H  H45  1  0.75486776  0.53960560  0.48240337  1
  H  H46  1  0.62946663  0.76500214  0.77989560  1
  H  H47  1  0.66505233  0.90320063  0.77049936  1
  H  H48  1  0.75857163  0.79756535  0.88500131  1
  H  H49  1  0.84389904  0.85175473  0.80782106  1
  H  H50  1  0.81999401  0.71753852  0.80594946  1
  H  H51  1  0.78890418  0.92990534  0.37638125  1
  Pb  Pb52  1  0.99420958  0.00582890  0.99903794  1
  Pb  Pb53  1  0.97956682  0.50581237  0.99242365  1
  Pb  Pb54  1  0.48569722  0.97514945  0.99522694  1
  Pb  Pb55  1  0.48859539  0.48521550  0.98953334  1
  C  C56  1  0.33438328  0.22493541  0.75620494  1
  C  C57  1  0.29929113  0.24981924  0.66101547  1
  C  C58  1  0.28823733  0.36016770  0.63203431  1
  C  C59  1  0.26487841  0.38757332  0.54275973  1
  C  C60  1  0.25293789  0.30318981  0.48066653  1
  C  C61  1  0.23481548  0.30961735  0.38546371  1
  C  C62  1  0.23226631  0.21209774  0.34197359  1
  C  C63  1  0.21725138  0.19825501  0.24261646  1
  C  C64  1  0.26316669  0.19211030  0.50956311  1
  C  C65  1  0.28586062  0.16498403  0.60029630  1
  C  C66  1  0.22521147  0.66909071  0.75914081  1
  C  C67  1  0.24705466  0.69613498  0.66036677  1
  C  C68  1  0.35299183  0.70503538  0.62940183  1
  C  C69  1  0.37761873  0.72808689  0.53895457  1
  C  C70  1  0.29481306  0.74270930  0.47769710  1
  C  C71  1  0.29876450  0.76265790  0.38206399  1
  C  C72  1  0.20335852  0.76969356  0.34053644  1
  C  C73  1  0.18879651  0.78337536  0.24093949  1
  C  C74  1  0.18807822  0.73465491  0.50861163  1
  C  C75  1  0.16380521  0.71143960  0.60035631  1
  C  C76  1  0.76630987  0.19323478  0.24111277  1
  C  C77  1  0.74758378  0.21079844  0.34111344  1
  C  C78  1  0.64242813  0.21498383  0.37547078  1
  C  C79  1  0.61997106  0.23131556  0.46691218  1
  C  C80  1  0.70429281  0.24476709  0.52566677  1
  C  C81  1  0.70281554  0.26411249  0.62082728  1
  C  C82  1  0.79901871  0.27725306  0.65861799  1
  C  C83  1  0.81740778  0.30699132  0.75458045  1
  C  C84  1  0.81022723  0.24170699  0.49131974  1
  C  C85  1  0.83232877  0.22362697  0.39883117  1
  C  C86  1  0.81287100  0.78414343  0.23918813  1
  C  C87  1  0.79099305  0.75982011  0.33821085  1
  C  C88  1  0.78205047  0.65005888  0.36811634  1
  C  C89  1  0.76095691  0.62409538  0.45876033  1
  C  C90  1  0.74829274  0.70948646  0.52091168  1
  C  C91  1  0.72553552  0.70458479  0.61619774  1
  C  C92  1  0.71886173  0.80289600  0.65878577  1
  C  C93  1  0.69256705  0.81944656  0.75696362  1
  C  C94  1  0.75827834  0.81984587  0.49127485  1
  C  C95  1  0.77986102  0.84546021  0.39952097  1
  S  S96  1  0.25022388  0.10357290  0.41927583  1
  S  S97  1  0.10024465  0.75287609  0.41981053  1
  S  S98  1  0.89990712  0.26301866  0.57672971  1
  S  S99  1  0.74083899  0.90967009  0.58105022  1
  I  I100  1  0.24489583  0.02181336  0.02409671  1
  I  I101  1  0.23622903  0.47528668  0.98541494  1
  I  I102  1  0.74756721  0.00588912  0.99618163  1
  I  I103  1  0.74028279  0.43693064  0.98644627  1
  I  I104  1  0.00936176  0.25556259  0.95694840  1
  I  I105  1  0.04142742  0.75353837  0.01763657  1
  I  I106  1  0.50101102  0.22574559  0.95881133  1
  I  I107  1  0.57580303  0.72682905  0.99748814  1
  I  I108  1  0.99360666  0.99133432  0.76996288  1
  I  I109  1  0.99988894  0.01536585  0.21336496  1
  I  I110  1  0.95008023  0.56722439  0.78010871  1
  I  I111  1  0.98864775  0.48304983  0.21397060  1
  I  I112  1  0.42604858  0.93230849  0.78632300  1
  I  I113  1  0.50207875  0.00075300  0.21610693  1
  I  I114  1  0.50259091  0.50356737  0.78208146  1
  I  I115  1  0.48422309  0.45992749  0.21816690  1
  N  N116  1  0.24364454  0.21121073  0.82405158  1
  N  N117  1  0.31453612  0.22634635  0.18644337  1
  N  N118  1  0.20463427  0.77101271  0.81339568  1
  N  N119  1  0.21818371  0.67903850  0.19099848  1
  N  N120  1  0.77013333  0.29976666  0.18853323  1
  N  N121  1  0.78128033  0.22061530  0.82209540  1
  N  N122  1  0.71231705  0.79887701  0.18687395  1
  N  N123  1  0.78471765  0.79488002  0.81769421  1
  F  F124  1  0.22325986  0.40685420  0.34062337  1
  F  F125  1  0.39135567  0.77033865  0.33433614  1
  F  F126  1  0.61148108  0.26882195  0.67126091  1
  F  F127  1  0.71112709  0.60839748  0.66067218  1
