# generated using pymatgen
data_H15PbC12SI4N2F
_symmetry_space_group_name_H-M   'P 1'
_cell_length_a   12.54369075
_cell_length_b   12.20190548
_cell_length_c   16.55766462
_cell_angle_alpha   89.58685974
_cell_angle_beta   89.45061608
_cell_angle_gamma   89.02929043
_symmetry_Int_Tables_number   1
_chemical_formula_structural   H15PbC12SI4N2F
_chemical_formula_sum   'H60 Pb4 C48 S4 I16 N8 F4'
_cell_volume   2533.72215266
_cell_formula_units_Z   4
loop_
 _symmetry_equiv_pos_site_id
 _symmetry_equiv_pos_as_xyz
  1  'x, y, z'
loop_
 _atom_site_type_symbol
 _atom_site_label
 _atom_site_symmetry_multiplicity
 _atom_site_fract_x
 _atom_site_fract_y
 _atom_site_fract_z
 _atom_site_occupancy
  H  H0  1  0.14254141  0.29682947  0.82826390  1
  H  H1  1  0.16220748  0.16019924  0.81376911  1
  H  H2  1  0.20564394  0.21908713  0.89770914  1
  H  H3  1  0.32528097  0.33643758  0.81981774  1
  H  H4  1  0.35941279  0.19378779  0.81793202  1
  H  H5  1  0.33813416  0.08486441  0.69592334  1
  H  H6  1  0.33016955  0.08301724  0.54674172  1
  H  H7  1  0.35324609  0.41375914  0.41483126  1
  H  H8  1  0.18075585  0.08612105  0.23174663  1
  H  H9  1  0.31072965  0.11898419  0.19649444  1
  H  H10  1  0.24155453  0.28981323  0.14324438  1
  H  H11  1  0.16985313  0.18578862  0.11182413  1
  H  H12  1  0.12134320  0.27250019  0.18371889  1
  H  H13  1  0.24045288  0.42636137  0.54655204  1
  H  H14  1  0.25093482  0.42819185  0.69559749  1
  H  H15  1  0.30121862  0.86229171  0.82601251  1
  H  H16  1  0.16958586  0.84863813  0.80759935  1
  H  H17  1  0.21945154  0.80130509  0.89391661  1
  H  H18  1  0.33962692  0.67372648  0.81778786  1
  H  H19  1  0.20133706  0.64236080  0.82043140  1
  H  H20  1  0.09026272  0.66417934  0.69915540  1
  H  H21  1  0.08428376  0.67199365  0.54976646  1
  H  H22  1  0.40793684  0.64599734  0.41711162  1
  H  H23  1  0.08564951  0.81119062  0.22408186  1
  H  H24  1  0.12484026  0.67619307  0.19459946  1
  H  H25  1  0.29621141  0.74886198  0.15035185  1
  H  H26  1  0.19303270  0.81092957  0.10545425  1
  H  H27  1  0.26149567  0.87435360  0.17865499  1
  H  H28  1  0.41631094  0.75861188  0.54250146  1
  H  H29  1  0.42255048  0.74678805  0.69194693  1
  H  H30  1  0.71367269  0.37234179  0.17511699  1
  H  H31  1  0.84510440  0.33920352  0.18143127  1
  H  H32  1  0.77474893  0.30108168  0.10118447  1
  H  H33  1  0.66181199  0.18403209  0.18111977  1
  H  H34  1  0.79835025  0.14155957  0.18064025  1
  H  H35  1  0.91076955  0.16816786  0.30241643  1
  H  H36  1  0.91315536  0.17208398  0.45172576  1
  H  H37  1  0.59148085  0.14405629  0.58539380  1
  H  H38  1  0.91311100  0.31584900  0.76873773  1
  H  H39  1  0.87520181  0.18522926  0.80523580  1
  H  H40  1  0.71206873  0.26373477  0.85768694  1
  H  H41  1  0.81435843  0.33644527  0.88724271  1
  H  H42  1  0.73231750  0.38524227  0.81482178  1
  H  H43  1  0.57827743  0.25935891  0.45495768  1
  H  H44  1  0.57603966  0.25251602  0.30550917  1
  H  H45  1  0.63904153  0.69073861  0.17814430  1
  H  H46  1  0.64482413  0.82837159  0.19220477  1
  H  H47  1  0.69090695  0.77406840  0.10689832  1
  H  H48  1  0.82459604  0.66413852  0.18075818  1
  H  H49  1  0.84527908  0.80869360  0.17842804  1
  H  H50  1  0.83308806  0.91722689  0.30174065  1
  H  H51  1  0.82841480  0.92176914  0.45095274  1
  H  H52  1  0.85608095  0.59038762  0.58384937  1
  H  H53  1  0.67760834  0.91710922  0.77358518  1
  H  H54  1  0.80833574  0.88115159  0.80650307  1
  H  H55  1  0.74045845  0.70403409  0.85121038  1
  H  H56  1  0.67528426  0.80935204  0.89294243  1
  H  H57  1  0.61864176  0.73527983  0.81921222  1
  H  H58  1  0.74411999  0.58007674  0.45679896  1
  H  H59  1  0.75231276  0.57521392  0.30748128  1
  Pb  Pb60  1  0.98309497  0.99037935  0.98568358  1
  Pb  Pb61  1  0.01705513  0.49392528  0.00647390  1
  Pb  Pb62  1  0.48824777  0.00488455  0.00719396  1
  Pb  Pb63  1  0.51134154  0.49149906  -0.00041174  1
  C  C64  1  0.30208569  0.25630971  0.79669335  1
  C  C65  1  0.29476857  0.25635824  0.70604416  1
  C  C66  1  0.31529016  0.15948373  0.66317498  1
  C  C67  1  0.31078439  0.15846787  0.57921351  1
  C  C68  1  0.28506252  0.25478319  0.53587887  1
  C  C69  1  0.28279686  0.25620032  0.44750640  1
  C  C70  1  0.31738580  0.33787005  0.39567321  1
  C  C71  1  0.30369421  0.30823847  0.31430025  1
  C  C72  1  0.25841033  0.20798137  0.30195914  1
  C  C73  1  0.23722246  0.15334385  0.22399038  1
  C  C74  1  0.26309429  0.35163528  0.57916404  1
  C  C75  1  0.26835850  0.35238786  0.66310711  1
  C  C76  1  0.26050929  0.69954907  0.79625770  1
  C  C77  1  0.25688523  0.70502721  0.70560503  1
  C  C78  1  0.16157803  0.68589345  0.66481623  1
  C  C79  1  0.15814108  0.69050892  0.58080708  1
  C  C80  1  0.25012930  0.71523855  0.53551238  1
  C  C81  1  0.25044282  0.71594629  0.44717508  1
  C  C82  1  0.33226521  0.68035507  0.39673739  1
  C  C83  1  0.30319093  0.69085695  0.31516172  1
  C  C84  1  0.20353655  0.73489794  0.30095827  1
  C  C85  1  0.15330871  0.75290323  0.22093391  1
  C  C86  1  0.34515167  0.73637072  0.57678153  1
  C  C87  1  0.34843197  0.73057597  0.66062619  1
  C  C88  1  0.74143785  0.20395684  0.20290857  1
  C  C89  1  0.74332492  0.21037090  0.29362103  1
  C  C90  1  0.83801023  0.18943206  0.33581184  1
  C  C91  1  0.83941507  0.19189588  0.41988102  1
  C  C92  1  0.74571940  0.21600661  0.46415117  1
  C  C93  1  0.74475317  0.21678879  0.55260757  1
  C  C94  1  0.66548518  0.18054192  0.60446683  1
  C  C95  1  0.69506601  0.19330675  0.68573142  1
  C  C96  1  0.79249600  0.23978235  0.69821758  1
  C  C97  1  0.84506453  0.26109225  0.77638383  1
  C  C98  1  0.65106933  0.23826187  0.42159570  1
  C  C99  1  0.65002774  0.23509933  0.33757884  1
  C  C100  1  0.79517253  0.74354259  0.20347105  1
  C  C101  1  0.79257833  0.74603904  0.29432048  1
  C  C102  1  0.81254561  0.84338669  0.33566715  1
  C  C103  1  0.80963066  0.84603979  0.41978987  1
  C  C104  1  0.78585474  0.75108096  0.46466316  1
  C  C105  1  0.78408684  0.75021028  0.55310072  1
  C  C106  1  0.81941196  0.66701352  0.60388232  1
  C  C107  1  0.80499995  0.69595868  0.68550231  1
  C  C108  1  0.75839032  0.79692500  0.69944950  1
  C  C109  1  0.73578624  0.84913420  0.77886846  1
  C  C110  1  0.76507397  0.65372659  0.42286624  1
  C  C111  1  0.76911067  0.65118957  0.33893589  1
  S  S112  1  0.23218165  0.14724812  0.39415850  1
  S  S113  1  0.14201763  0.76384147  0.39212656  1
  S  S114  1  0.85106688  0.26801752  0.60596098  1
  S  S115  1  0.73190257  0.85959602  0.60792271  1
  I  I116  1  0.23597452  0.04288120  0.00441584  1
  I  I117  1  0.27098701  0.41192904  0.00975435  1
  I  I118  1  0.73850357  0.93538377  0.00223707  1
  I  I119  1  0.77386165  0.55993848  0.98434586  1
  I  I120  1  0.95065391  0.24521132  0.99371054  1
  I  I121  1  0.07272058  0.74469016  0.99716870  1
  I  I122  1  0.59429675  0.24332701  0.99329654  1
  I  I123  1  0.45076781  0.74638613  0.01655715  1
  I  I124  1  0.02325483  0.99662065  0.78912531  1
  I  I125  1  0.98824613  0.00386327  0.17700151  1
  I  I126  1  0.04685390  0.47504885  0.81588312  1
  I  I127  1  0.00761923  0.45616385  0.20442815  1
  I  I128  1  0.46448736  0.96279380  0.81425315  1
  I  I129  1  0.49275933  0.98360855  0.20097605  1
  I  I130  1  0.53738649  0.51404545  0.80634032  1
  I  I131  1  0.56817189  0.49994161  0.19181277  1
  N  N132  1  0.19639911  0.23079711  0.83615188  1
  N  N133  1  0.18898803  0.23020959  0.16291453  1
  N  N134  1  0.23620325  0.80964879  0.83276871  1
  N  N135  1  0.23123478  0.80033353  0.16085565  1
  N  N136  1  0.77122709  0.31037882  0.16316842  1
  N  N137  1  0.77118262  0.31542819  0.83655746  1
  N  N138  1  0.68550810  0.76041329  0.16865754  1
  N  N139  1  0.68914868  0.76912679  0.83837311  1
  F  F140  1  0.33285046  0.37366291  0.25125782  1
  F  F141  1  0.36850702  0.65968516  0.25303967  1
  F  F142  1  0.63256160  0.16158333  0.74921616  1
  F  F143  1  0.83531820  0.62873022  0.74760508  1
