# generated using pymatgen
data_H14PbC7S(I2N)2
_symmetry_space_group_name_H-M   'P 1'
_cell_length_a   12.46762869
_cell_length_b   12.43958496
_cell_length_c   13.61603899
_cell_angle_alpha   88.93739586
_cell_angle_beta   88.28089698
_cell_angle_gamma   89.82802777
_symmetry_Int_Tables_number   1
_chemical_formula_structural   H14PbC7S(I2N)2
_chemical_formula_sum   'H56 Pb4 C28 S4 I16 N8'
_cell_volume   2110.42066082
_cell_formula_units_Z   4
loop_
 _symmetry_equiv_pos_site_id
 _symmetry_equiv_pos_as_xyz
  1  'x, y, z'
loop_
 _atom_site_type_symbol
 _atom_site_label
 _atom_site_symmetry_multiplicity
 _atom_site_fract_x
 _atom_site_fract_y
 _atom_site_fract_z
 _atom_site_occupancy
  H  H0  1  0.18883422  0.38928927  0.81260204  1
  H  H1  1  0.17929711  0.26065110  0.84537925  1
  H  H2  1  0.29407189  0.32295660  0.86402762  1
  H  H3  1  0.31780013  0.21282925  0.72002712  1
  H  H4  1  0.33042955  0.35260450  0.69069763  1
  H  H5  1  0.12527480  0.21690152  0.67112483  1
  H  H6  1  0.13447907  0.35687250  0.64577726  1
  H  H7  1  0.21830136  0.08225123  0.54314286  1
  H  H8  1  0.28613033  0.09166685  0.35653008  1
  H  H9  1  0.35268428  0.37667118  0.26068975  1
  H  H10  1  0.36397361  0.23916730  0.22990329  1
  H  H11  1  0.17657674  0.24067412  0.18678634  1
  H  H12  1  0.24251176  0.33878096  0.12743514  1
  H  H13  1  0.15901664  0.36756058  0.22219439  1
  H  H14  1  0.38755096  0.80738845  0.81294606  1
  H  H15  1  0.25828259  0.81577969  0.84433925  1
  H  H16  1  0.32141305  0.70076404  0.86609388  1
  H  H17  1  0.21441900  0.67971060  0.72228273  1
  H  H18  1  0.35441766  0.66893746  0.69361542  1
  H  H19  1  0.21793043  0.87474787  0.66824503  1
  H  H20  1  0.35773855  0.86524807  0.64179416  1
  H  H21  1  0.08341547  0.78375772  0.54461565  1
  H  H22  1  0.09344094  0.71303301  0.36166909  1
  H  H23  1  0.37681790  0.64030830  0.26724581  1
  H  H24  1  0.23909466  0.63213552  0.23839431  1
  H  H25  1  0.24361193  0.81978505  0.18795409  1
  H  H26  1  0.34164798  0.75286296  0.13032877  1
  H  H27  1  0.37021400  0.83475344  0.22223645  1
  H  H28  1  0.61694731  0.29956806  0.18257454  1
  H  H29  1  0.74591172  0.31118890  0.15574620  1
  H  H30  1  0.68786539  0.19444100  0.13416418  1
  H  H31  1  0.78945263  0.17456455  0.28126628  1
  H  H32  1  0.64918869  0.16190753  0.30784828  1
  H  H33  1  0.77979075  0.37084020  0.32846987  1
  H  H34  1  0.64094206  0.35686055  0.35557313  1
  H  H35  1  0.91758468  0.27850216  0.45418029  1
  H  H36  1  0.90837668  0.20740793  0.63995097  1
  H  H37  1  0.62625130  0.13175902  0.73403321  1
  H  H38  1  0.76336009  0.12523583  0.76481730  1
  H  H39  1  0.75366944  0.30947235  0.81638232  1
  H  H40  1  0.65760078  0.23781265  0.87166186  1
  H  H41  1  0.62847884  0.32527680  0.77938466  1
  H  H42  1  0.70519675  0.60902018  0.18599715  1
  H  H43  1  0.68593365  0.73737422  0.16043074  1
  H  H44  1  0.80580012  0.68554459  0.13419967  1
  H  H45  1  0.82169221  0.78743589  0.28064625  1
  H  H46  1  0.83632286  0.64764937  0.30791715  1
  H  H47  1  0.62626054  0.77799411  0.33422428  1
  H  H48  1  0.63941234  0.63851479  0.35953766  1
  H  H49  1  0.72077577  0.91587761  0.45547279  1
  H  H50  1  0.79297788  0.90851430  0.63724671  1
  H  H51  1  0.86231778  0.62622011  0.73234190  1
  H  H52  1  0.87145502  0.76453868  0.76020270  1
  H  H53  1  0.68156760  0.76109650  0.81013726  1
  H  H54  1  0.75396657  0.67082968  0.87274946  1
  H  H55  1  0.67240459  0.63072777  0.78364658  1
  Pb  Pb56  1  -0.00005756  0.99908592  0.00367377  1
  Pb  Pb57  1  0.00973558  0.50827381  0.00692958  1
  Pb  Pb58  1  0.50110825  0.99873324  0.00496096  1
  Pb  Pb59  1  0.50958898  0.49682868  0.98596212  1
  C  C60  1  0.27369439  0.28904584  0.71400116  1
  C  C61  1  0.18012817  0.28107297  0.64414695  1
  C  C62  1  0.21673424  0.25645749  0.54135811  1
  C  C63  1  0.23301466  0.15645118  0.50124827  1
  C  C64  1  0.26809768  0.16142277  0.40138457  1
  C  C65  1  0.27798675  0.26542945  0.36535674  1
  C  C66  1  0.31058048  0.29929441  0.26375534  1
  C  C67  1  0.28993019  0.72477687  0.71530156  1
  C  C68  1  0.28211292  0.81978781  0.64275823  1
  C  C69  1  0.25737166  0.78334581  0.54174247  1
  C  C70  1  0.15762275  0.76778574  0.50314614  1
  C  C71  1  0.16278770  0.73048125  0.40545793  1
  C  C72  1  0.26661189  0.71778953  0.36966155  1
  C  C73  1  0.30014775  0.68397971  0.26944775  1
  C  C74  1  0.71314611  0.21877911  0.28593104  1
  C  C75  1  0.71794265  0.31357651  0.35579092  1
  C  C76  1  0.74366684  0.27854217  0.45807269  1
  C  C77  1  0.84369518  0.26367284  0.49690908  1
  C  C78  1  0.83901592  0.22717607  0.59611775  1
  C  C79  1  0.73529536  0.21501045  0.63274023  1
  C  C80  1  0.70161610  0.17721734  0.73280194  1
  C  C81  1  0.77886479  0.71044239  0.28686825  1
  C  C82  1  0.68271272  0.71550087  0.35921422  1
  C  C83  1  0.71731042  0.74163411  0.46029617  1
  C  C84  1  0.73484462  0.84220882  0.49764901  1
  C  C85  1  0.77280237  0.83849636  0.59464198  1
  C  C86  1  0.78369113  0.73497519  0.63116639  1
  C  C87  1  0.81881986  0.70306384  0.73068159  1
  S  S88  1  0.24484018  0.35711255  0.45540699  1
  S  S89  1  0.35792757  0.75149385  0.45707393  1
  S  S90  1  0.64357018  0.24766613  0.54416003  1
  S  S91  1  0.74788034  0.64218628  0.54502408  1
  I  I92  1  0.24761025  0.94533043  0.99862650  1
  I  I93  1  0.26328551  0.56220632  0.01301509  1
  I  I94  1  0.74212515  0.07493881  0.99772353  1
  I  I95  1  0.76206457  0.44523019  0.98468995  1
  I  I96  1  0.04880128  0.25164945  0.00300205  1
  I  I97  1  0.92100189  0.74829914  0.99264274  1
  I  I98  1  0.43267116  0.25329814  0.99263936  1
  I  I99  1  0.54825958  0.74798888  0.01481506  1
  I  I100  1  0.01076708  0.00194224  0.76347454  1
  I  I101  1  0.00537026  0.99404609  0.23466066  1
  I  I102  1  0.04508922  0.51698427  0.77455792  1
  I  I103  1  0.00234401  0.48991341  0.24556123  1
  I  I104  1  0.52515369  0.94400162  0.77305143  1
  I  I105  1  0.49948063  0.98663465  0.24194595  1
  I  I106  1  0.52052709  0.49844886  0.74781011  1
  I  I107  1  0.53318533  0.49137934  0.21866092  1
  N  N108  1  0.23261723  0.31684994  0.81472654  1
  N  N109  1  0.21675079  0.31195786  0.19648011  1
  N  N110  1  0.31549777  0.76349512  0.81535492  1
  N  N111  1  0.31431579  0.77837343  0.19859413  1
  N  N112  1  0.68910534  0.25765369  0.18399611  1
  N  N113  1  0.68395157  0.26822258  0.80375142  1
  N  N114  1  0.74257635  0.68365644  0.18654432  1
  N  N115  1  0.72553323  0.69063302  0.80395423  1
