# generated using pymatgen
data_H14PbC7S(I2N)2
_symmetry_space_group_name_H-M   'P 1'
_cell_length_a   12.77694828
_cell_length_b   12.56418382
_cell_length_c   12.55855200
_cell_angle_alpha   89.95227948
_cell_angle_beta   86.90464839
_cell_angle_gamma   90.59149822
_symmetry_Int_Tables_number   1
_chemical_formula_structural   H14PbC7S(I2N)2
_chemical_formula_sum   'H56 Pb4 C28 S4 I16 N8'
_cell_volume   2012.99801958
_cell_formula_units_Z   4
loop_
 _symmetry_equiv_pos_site_id
 _symmetry_equiv_pos_as_xyz
  1  'x, y, z'
loop_
 _atom_site_type_symbol
 _atom_site_label
 _atom_site_symmetry_multiplicity
 _atom_site_fract_x
 _atom_site_fract_y
 _atom_site_fract_z
 _atom_site_occupancy
  H  H0  1  0.25587875  0.01750377  0.41980920  1
  H  H1  1  0.22917451  0.08978587  0.30386493  1
  H  H2  1  0.35905025  0.08704970  0.34896839  1
  H  H3  1  0.21699806  0.10862753  0.60045390  1
  H  H4  1  0.11695985  0.36319949  0.71946700  1
  H  H5  1  0.14343080  0.22728642  0.74997399  1
  H  H6  1  0.30844149  0.39896182  0.74973719  1
  H  H7  1  0.31028091  0.27864713  0.80625209  1
  H  H8  1  0.22620172  0.36785207  0.85494359  1
  H  H9  1  0.34748786  0.27347965  0.25910243  1
  H  H10  1  0.32711980  0.40623719  0.29859700  1
  H  H11  1  0.22864437  0.37973105  0.15402484  1
  H  H12  1  0.17442719  0.26470882  0.19510020  1
  H  H13  1  0.13751605  0.37803072  0.25376509  1
  H  H14  1  0.02422282  0.74347158  0.42808231  1
  H  H15  1  0.09873841  0.77766146  0.31031019  1
  H  H16  1  0.09342292  0.64341474  0.35546430  1
  H  H17  1  0.11004793  0.79560191  0.60111338  1
  H  H18  1  0.36273605  0.88424601  0.71215637  1
  H  H19  1  0.22599861  0.86666632  0.74434937  1
  H  H20  1  0.38643826  0.69598117  0.76036354  1
  H  H21  1  0.25839395  0.68719917  0.79746922  1
  H  H22  1  0.33648269  0.77351042  0.86014688  1
  H  H23  1  0.27216820  0.64034404  0.27102204  1
  H  H24  1  0.40317509  0.64617068  0.30911311  1
  H  H25  1  0.39366160  0.74657669  0.15556031  1
  H  H26  1  0.29080652  0.81717193  0.19734668  1
  H  H27  1  0.40673389  0.83676021  0.25113476  1
  H  H28  1  0.97266434  0.23814113  0.57411652  1
  H  H29  1  0.89685721  0.26489604  0.69361899  1
  H  H30  1  0.91093907  0.13289216  0.64749554  1
  H  H31  1  0.88642802  0.26385265  0.39803960  1
  H  H32  1  0.62863783  0.34783057  0.29515317  1
  H  H33  1  0.76388940  0.34008350  0.25784312  1
  H  H34  1  0.62601481  0.14617076  0.24627357  1
  H  H35  1  0.73621687  0.17562882  0.17491373  1
  H  H36  1  0.62839804  0.24179802  0.15299068  1
  H  H37  1  0.72088239  0.13175856  0.74167546  1
  H  H38  1  0.59015875  0.14234084  0.70499023  1
  H  H39  1  0.60616461  0.25458762  0.84827931  1
  H  H40  1  0.71963201  0.30908800  0.80556786  1
  H  H41  1  0.60967212  0.33999692  0.74589885  1
  H  H42  1  0.79166762  0.97898352  0.56339113  1
  H  H43  1  0.76876749  0.91274768  0.68701333  1
  H  H44  1  0.89595120  0.91344341  0.62408954  1
  H  H45  1  0.74303709  0.88150529  0.39668757  1
  H  H46  1  0.63405133  0.61889599  0.30453988  1
  H  H47  1  0.65301487  0.75423793  0.26699291  1
  H  H48  1  0.82643303  0.59534605  0.24322524  1
  H  H49  1  0.81711357  0.71276997  0.18089663  1
  H  H50  1  0.73722631  0.61422619  0.15191355  1
  H  H51  1  0.87319366  0.73236879  0.73194324  1
  H  H52  1  0.85545524  0.59672202  0.70023361  1
  H  H53  1  0.74649991  0.63948251  0.85104835  1
  H  H54  1  0.69039101  0.74316007  0.79145730  1
  H  H55  1  0.66593237  0.61917848  0.75190205  1
  Pb  Pb56  1  0.98930809  0.99960372  0.00669589  1
  Pb  Pb57  1  1.00660479  0.50752841  -0.00040068  1
  Pb  Pb58  1  0.51790027  0.98250495  0.00373131  1
  Pb  Pb59  1  0.49634468  0.49777746  0.97811630  1
  C  C60  1  0.27551489  0.09075524  0.37516381  1
  C  C61  1  0.25344877  0.18640897  0.44352462  1
  C  C62  1  0.22807445  0.18220884  0.55491114  1
  C  C63  1  0.21337604  0.28077809  0.60131820  1
  C  C64  1  0.17638155  0.30062307  0.71350810  1
  C  C65  1  0.25723514  0.29058073  0.40670050  1
  C  C66  1  0.28984326  0.32736291  0.29746462  1
  C  C67  1  0.09744570  0.72683730  0.38180191  1
  C  C68  1  0.19014132  0.74663242  0.44767153  1
  C  C69  1  0.18330703  0.77940258  0.55594462  1
  C  C70  1  0.27910305  0.79006994  0.60057438  1
  C  C71  1  0.29678440  0.82777820  0.71024235  1
  C  C72  1  0.29362997  0.73284010  0.41147681  1
  C  C73  1  0.33109387  0.69234528  0.30540310  1
  C  C74  1  0.90104581  0.21556902  0.62117515  1
  C  C75  1  0.80714096  0.22756762  0.55588687  1
  C  C76  1  0.81326281  0.25075937  0.44505116  1
  C  C77  1  0.71707863  0.25742618  0.40119750  1
  C  C78  1  0.69635572  0.29489759  0.29246043  1
  C  C79  1  0.70378395  0.21595600  0.59470863  1
  C  C80  1  0.66569137  0.18464465  0.70423052  1
  C  C81  1  0.81205921  0.90844759  0.60915646  1
  C  C82  1  0.78529505  0.80953518  0.54982075  1
  C  C83  1  0.75336259  0.80952130  0.44327918  1
  C  C84  1  0.73375146  0.70945672  0.40389206  1
  C  C85  1  0.69162837  0.68430512  0.29893211  1
  C  C86  1  0.78892151  0.70679965  0.59044510  1
  C  C87  1  0.81826083  0.67503658  0.69893481  1
  S  S88  1  0.23006016  0.38126280  0.50774246  1
  S  S89  1  0.38029269  0.76079050  0.50895260  1
  S  S90  1  0.61658530  0.23506199  0.49626071  1
  S  S91  1  0.75414223  0.61275266  0.49799982  1
  I  I92  1  0.27672836  0.92770127  0.00879567  1
  I  I93  1  0.25896893  0.55976905  0.03440330  1
  I  I94  1  0.76213036  0.08984534  0.97586049  1
  I  I95  1  0.75858392  0.44991209  0.96754577  1
  I  I96  1  0.07117554  0.26777797  0.98996087  1
  I  I97  1  0.91318064  0.75859642  0.99678011  1
  I  I98  1  0.44452625  0.23949444  0.98265081  1
  I  I99  1  0.56996915  0.73380538  0.02531041  1
  I  I100  1  0.05911922  1.00083509  0.76034217  1
  I  I101  1  -0.00583383  0.02325318  0.25429097  1
  I  I102  1  0.08527038  0.57168963  0.76431447  1
  I  I103  1  0.96611499  0.46715807  0.26342577  1
  I  I104  1  0.55740160  0.91724643  0.76520365  1
  I  I105  1  0.54744359  0.96989562  0.26982760  1
  I  I106  1  0.49510236  0.50725295  0.70853880  1
  I  I107  1  0.51189123  0.47894873  0.21698216  1
  N  N108  1  0.26151703  0.33906471  0.78445046  1
  N  N109  1  0.20268340  0.33668980  0.22142329  1
  N  N110  1  0.32183221  0.73966674  0.78678552  1
  N  N111  1  0.35566309  0.77823530  0.22345672  1
  N  N112  1  0.67081107  0.20977762  0.21292995  1
  N  N113  1  0.65027626  0.27790791  0.77958564  1
  N  N114  1  0.77299676  0.65011753  0.21482305  1
  N  N115  1  0.72453473  0.66924705  0.77845427  1
