# generated using pymatgen
data_H18PbC20S2(I2N)2
_symmetry_space_group_name_H-M   'P 1'
_cell_length_a   12.20479584
_cell_length_b   11.92885775
_cell_length_c   22.01054896
_cell_angle_alpha   88.56775318
_cell_angle_beta   90.18680189
_cell_angle_gamma   87.91372541
_symmetry_Int_Tables_number   1
_chemical_formula_structural   H18PbC20S2(I2N)2
_chemical_formula_sum   'H72 Pb4 C80 S8 I16 N8'
_cell_volume   3201.34733344
_cell_formula_units_Z   4
loop_
 _symmetry_equiv_pos_site_id
 _symmetry_equiv_pos_as_xyz
  1  'x, y, z'
loop_
 _atom_site_type_symbol
 _atom_site_label
 _atom_site_symmetry_multiplicity
 _atom_site_fract_x
 _atom_site_fract_y
 _atom_site_fract_z
 _atom_site_occupancy
  H  H0  1  0.23343592  0.23009959  0.91531123  1
  H  H1  1  0.16233276  0.18791424  0.85532246  1
  H  H2  1  0.19451277  0.32473444  0.86139677  1
  H  H3  1  0.35351691  0.13030826  0.84874242  1
  H  H4  1  0.38969565  0.27251390  0.85648685  1
  H  H5  1  0.31666700  0.06143141  0.74168177  1
  H  H6  1  0.29239594  0.04035619  0.61556134  1
  H  H7  1  0.26423926  0.03980041  0.50474595  1
  H  H8  1  0.23251512  0.03584909  0.39428689  1
  H  H9  1  0.15151257  0.36735273  0.15360929  1
  H  H10  1  0.10566585  0.22794475  0.14817661  1
  H  H11  1  0.29389079  0.16217701  0.13487804  1
  H  H12  1  0.25927373  0.26526040  0.08437054  1
  H  H13  1  0.33836212  0.29423915  0.14375373  1
  H  H14  1  0.19729423  0.43658433  0.25932670  1
  H  H15  1  0.22987722  0.45868777  0.38508765  1
  H  H16  1  0.25915393  0.45966087  0.49623529  1
  H  H17  1  0.28561759  0.46329298  0.60750701  1
  H  H18  1  0.22662141  0.77537181  0.91487252  1
  H  H19  1  0.20365765  0.85422976  0.85196945  1
  H  H20  1  0.33138912  0.79960685  0.86851534  1
  H  H21  1  0.13580844  0.66181932  0.84773748  1
  H  H22  1  0.27412588  0.61129140  0.85790352  1
  H  H23  1  0.06856765  0.68821046  0.73972940  1
  H  H24  1  0.04670743  0.70927152  0.61259859  1
  H  H25  1  0.04501709  0.73645206  0.50097923  1
  H  H26  1  0.04087885  0.76673346  0.38945856  1
  H  H27  1  0.36743059  0.83788055  0.15503805  1
  H  H28  1  0.22890638  0.88876779  0.14580156  1
  H  H29  1  0.17655642  0.69039517  0.14259054  1
  H  H30  1  0.25285095  0.73199367  0.08510253  1
  H  H31  1  0.31023766  0.64925582  0.14140163  1
  H  H32  1  0.43366559  0.79934964  0.26329660  1
  H  H33  1  0.45381600  0.76929740  0.38959661  1
  H  H34  1  0.45487851  0.74031923  0.50038783  1
  H  H35  1  0.45949248  0.71568075  0.61153580  1
  H  H36  1  0.76176893  0.27227572  0.08378704  1
  H  H37  1  0.81089909  0.34517339  0.14134423  1
  H  H38  1  0.67669355  0.31462382  0.13821156  1
  H  H39  1  0.86428973  0.14761199  0.15263462  1
  H  H40  1  0.72422053  0.11290619  0.14493435  1
  H  H41  1  0.93527545  0.18458100  0.26119644  1
  H  H42  1  0.95569952  0.20849986  0.38794320  1
  H  H43  1  0.95509492  0.23592301  0.49880899  1
  H  H44  1  0.95767915  0.26584503  0.60891816  1
  H  H45  1  0.63551086  0.34649579  0.84385931  1
  H  H46  1  0.77082923  0.39711938  0.84806379  1
  H  H47  1  0.83816557  0.20109659  0.86354538  1
  H  H48  1  0.75038566  0.24408718  0.91672320  1
  H  H49  1  0.70714483  0.15827655  0.86305011  1
  H  H50  1  0.56574666  0.30164121  0.73687799  1
  H  H51  1  0.54470269  0.26952317  0.61058258  1
  H  H52  1  0.54502578  0.24060980  0.49957872  1
  H  H53  1  0.54257137  0.21589432  0.38876247  1
  H  H54  1  0.73641095  0.76478205  0.08445579  1
  H  H55  1  0.65800156  0.80238143  0.14310825  1
  H  H56  1  0.70835685  0.66745847  0.13812444  1
  H  H57  1  0.84107350  0.87109557  0.15161655  1
  H  H58  1  0.89450434  0.73077386  0.14630851  1
  H  H59  1  0.81320592  0.94118797  0.25981550  1
  H  H60  1  0.79110231  0.96157059  0.38686902  1
  H  H61  1  0.76397415  0.96013727  0.49808645  1
  H  H62  1  0.73417126  0.96147334  0.60862079  1
  H  H63  1  0.65131298  0.62674343  0.84475786  1
  H  H64  1  0.59631030  0.76667070  0.84849905  1
  H  H65  1  0.78058868  0.83041459  0.86409970  1
  H  H66  1  0.74494296  0.73636909  0.91706563  1
  H  H67  1  0.83158310  0.69541393  0.86238642  1
  H  H68  1  0.69703881  0.55816753  0.73835443  1
  H  H69  1  0.73097601  0.53863813  0.61253096  1
  H  H70  1  0.76004900  0.54048060  0.50193641  1
  H  H71  1  0.78535657  0.53893157  0.39151242  1
  Pb  Pb72  1  0.01671472  0.00085486  0.99284801  1
  Pb  Pb73  1  0.97678298  0.51076562  0.99616277  1
  Pb  Pb74  1  0.52356938  0.00293468  0.00189388  1
  Pb  Pb75  1  0.46986295  0.49473362  0.00682459  1
  C  C76  1  0.32933090  0.21748429  0.83676435  1
  C  C77  1  0.31959131  0.23330766  0.76961998  1
  C  C78  1  0.31334008  0.15009843  0.72845310  1
  C  C79  1  0.30149489  0.19119895  0.66682676  1
  C  C80  1  0.29103793  0.13198038  0.61389504  1
  C  C81  1  0.27687999  0.18957876  0.55698990  1
  C  C82  1  0.26322760  0.13149990  0.50285611  1
  C  C83  1  0.24737198  0.18746247  0.44656779  1
  C  C84  1  0.23188858  0.12741518  0.39217436  1
  C  C85  1  0.21638405  0.18617960  0.33806232  1
  C  C86  1  0.18755907  0.26449856  0.23246032  1
  C  C87  1  0.17135572  0.27918587  0.16563116  1
  C  C88  1  0.19948316  0.34809748  0.27294387  1
  C  C89  1  0.21568294  0.30755081  0.33445783  1
  C  C90  1  0.23037595  0.36707392  0.38699317  1
  C  C91  1  0.24621329  0.30983468  0.44394175  1
  C  C92  1  0.26039673  0.36794759  0.49807279  1
  C  C93  1  0.27509574  0.31195809  0.55450555  1
  C  C94  1  0.28708632  0.37170382  0.60932449  1
  C  C95  1  0.29902324  0.31260371  0.66361949  1
  C  C96  1  0.22149162  0.67883701  0.83715653  1
  C  C97  1  0.23653824  0.68804131  0.77028754  1
  C  C98  1  0.15486191  0.69235963  0.72772118  1
  C  C99  1  0.19446292  0.70196781  0.66656398  1
  C  C100  1  0.13610582  0.71081688  0.61244739  1
  C  C101  1  0.19164528  0.72404480  0.55626564  1
  C  C102  1  0.13453827  0.73718131  0.50081518  1
  C  C103  1  0.18886739  0.75232941  0.44532241  1
  C  C104  1  0.13031248  0.76682002  0.38933788  1
  C  C105  1  0.18797641  0.78067984  0.33619238  1
  C  C106  1  0.26602132  0.80604720  0.23193645  1
  C  C107  1  0.28178300  0.82020143  0.16528899  1
  C  C108  1  0.34704976  0.79622325  0.27472148  1
  C  C109  1  0.30650836  0.78189902  0.33540521  1
  C  C110  1  0.36438887  0.76858744  0.38943701  1
  C  C111  1  0.30829887  0.75331099  0.44521046  1
  C  C112  1  0.36537508  0.73945135  0.50054622  1
  C  C113  1  0.31106609  0.72557248  0.55603134  1
  C  C114  1  0.37010404  0.71467442  0.61194783  1
  C  C115  1  0.31294938  0.70457629  0.66541253  1
  C  C116  1  0.77974574  0.17393809  0.16389200  1
  C  C117  1  0.76662498  0.18353658  0.23083224  1
  C  C118  1  0.84859513  0.18896482  0.27304804  1
  C  C119  1  0.80858410  0.20062817  0.33402528  1
  C  C120  1  0.86616302  0.21026824  0.38795446  1
  C  C121  1  0.80948446  0.22392998  0.44378752  1
  C  C122  1  0.86551798  0.23687505  0.49891345  1
  C  C123  1  0.81020689  0.25190446  0.55405188  1
  C  C124  1  0.86825999  0.26640829  0.60937081  1
  C  C125  1  0.81057887  0.28109545  0.66234058  1
  C  C126  1  0.73435229  0.30923362  0.76636077  1
  C  C127  1  0.72170028  0.32750127  0.83270535  1
  C  C128  1  0.65228692  0.29823718  0.72472938  1
  C  C129  1  0.69193567  0.28234180  0.66394567  1
  C  C130  1  0.63421488  0.26856146  0.61039619  1
  C  C131  1  0.69066629  0.25314354  0.55459730  1
  C  C132  1  0.63461190  0.23954755  0.49950439  1
  C  C133  1  0.68992372  0.22566171  0.44423623  1
  C  C134  1  0.63202707  0.21455574  0.38853375  1
  C  C135  1  0.68990982  0.20354590  0.33533767  1
  C  C136  1  0.82695747  0.78339338  0.16433062  1
  C  C137  1  0.81638411  0.76905395  0.23136166  1
  C  C138  1  0.81027209  0.85255827  0.27269052  1
  C  C139  1  0.79951779  0.81146962  0.33424777  1
  C  C140  1  0.78977631  0.87005467  0.38768691  1
  C  C141  1  0.77650396  0.81159667  0.44410387  1
  C  C142  1  0.76344593  0.86849799  0.49887797  1
  C  C143  1  0.74861764  0.81124215  0.55449324  1
  C  C144  1  0.73394571  0.86993221  0.60956695  1
  C  C145  1  0.71901888  0.80983451  0.66284012  1
  C  C146  1  0.68755093  0.73017470  0.76703674  1
  C  C147  1  0.66661833  0.71472684  0.83320681  1
  C  C148  1  0.70030464  0.64696250  0.72591101  1
  C  C149  1  0.71771851  0.68856174  0.66504991  1
  C  C150  1  0.73193255  0.63018066  0.61188914  1
  C  C151  1  0.74747340  0.68897194  0.55583934  1
  C  C152  1  0.76111017  0.63209321  0.50117472  1
  C  C153  1  0.77504749  0.68935867  0.44553807  1
  C  C154  1  0.78643739  0.63041895  0.39040914  1
  C  C155  1  0.79733647  0.69025441  0.33673013  1
  S  S156  1  0.19372510  0.12972715  0.26675285  1
  S  S157  1  0.31401411  0.36851193  0.73572492  1
  S  S158  1  0.13361242  0.80081957  0.26299544  1
  S  S159  1  0.36826854  0.69238747  0.73861826  1
  S  S160  1  0.86569107  0.30255979  0.73412949  1
  S  S161  1  0.63508480  0.18976933  0.26276959  1
  S  S162  1  0.69607500  0.86545041  0.73436263  1
  S  S163  1  0.81168096  0.63407351  0.26479109  1
  I  I164  1  0.26897436  0.06448808  0.99817610  1
  I  I165  1  0.22618628  0.41583983  1.00049074  1
  I  I166  1  0.77585508  0.91274853  0.00198727  1
  I  I167  1  0.72400601  0.55452047  0.99338112  1
  I  I168  1  0.93242093  0.25248989  -0.00049671  1
  I  I169  1  0.09833332  0.74536835  0.00004067  1
  I  I170  1  0.58479507  0.25330747  0.00467950  1
  I  I171  1  0.45161155  0.75594146  0.98625668  1
  I  I172  1  0.04204181  0.01748830  0.84154261  1
  I  I173  1  0.03533159  0.00155022  0.13497391  1
  I  I174  1  0.96401635  0.52082706  0.84977118  1
  I  I175  1  0.95188121  0.49831943  0.14193350  1
  I  I176  1  0.56555158  0.01533139  0.85683236  1
  I  I177  1  0.53517101  0.98161487  0.14852263  1
  I  I178  1  0.46179697  0.48799011  0.86561146  1
  I  I179  1  0.44942708  0.48572877  0.15925049  1
  N  N180  1  0.22243925  0.24299082  0.86866907  1
  N  N181  1  0.27302658  0.24643552  0.13046142  1
  N  N182  1  0.24879817  0.78459403  0.86914698  1
  N  N183  1  0.25394896  0.71606739  0.13176143  1
  N  N184  1  0.75527599  0.28383721  0.13034055  1
  N  N185  1  0.75761474  0.22613373  0.87093677  1
  N  N186  1  0.72521451  0.75064616  0.13097043  1
  N  N187  1  0.76273547  0.74735616  0.87116487  1
