# generated using pymatgen
data_H16PbC12S(I2N)2
_symmetry_space_group_name_H-M   'P 1'
_cell_length_a   12.49251881
_cell_length_b   12.37268329
_cell_length_c   16.00129150
_cell_angle_alpha   88.70851946
_cell_angle_beta   88.99132137
_cell_angle_gamma   89.19428109
_symmetry_Int_Tables_number   1
_chemical_formula_structural   H16PbC12S(I2N)2
_chemical_formula_sum   'H64 Pb4 C48 S4 I16 N8'
_cell_volume   2472.01281588
_cell_formula_units_Z   4
loop_
 _symmetry_equiv_pos_site_id
 _symmetry_equiv_pos_as_xyz
  1  'x, y, z'
loop_
 _atom_site_type_symbol
 _atom_site_label
 _atom_site_symmetry_multiplicity
 _atom_site_fract_x
 _atom_site_fract_y
 _atom_site_fract_z
 _atom_site_occupancy
  H  H0  1  0.21311031  0.20552122  0.86462595  1
  H  H1  1  0.17803695  0.10095141  0.80667737  1
  H  H2  1  0.27692389  0.08784301  0.87606246  1
  H  H3  1  0.38653356  0.21529543  0.79745292  1
  H  H4  1  0.35840887  0.09645398  0.74222253  1
  H  H5  1  0.27623403  0.38742490  0.76468811  1
  H  H6  1  0.20849889  0.49907316  0.64485168  1
  H  H7  1  0.17644946  0.41530275  0.50866709  1
  H  H8  1  0.14307565  0.04289159  0.50957080  1
  H  H9  1  0.23768347  0.30761294  0.22657910  1
  H  H10  1  0.12307438  0.23176964  0.20300958  1
  H  H11  1  0.22267202  0.08319733  0.16862616  1
  H  H12  1  0.33728987  0.12274709  0.21150001  1
  H  H13  1  0.29316019  0.18586012  0.12468225  1
  H  H14  1  0.25262554  0.33785185  0.38106826  1
  H  H15  1  0.27598867  0.10571987  0.61104799  1
  H  H16  1  0.20735974  0.78013890  0.86768024  1
  H  H17  1  0.10185660  0.81732081  0.80980057  1
  H  H18  1  0.09367866  0.71357213  0.87940460  1
  H  H19  1  0.22382964  0.60887014  0.80135244  1
  H  H20  1  0.10302652  0.63639115  0.74775401  1
  H  H21  1  0.38705950  0.72924097  0.76402155  1
  H  H22  1  0.48741784  0.80712703  0.64168456  1
  H  H23  1  0.39836235  0.83767306  0.50655444  1
  H  H24  1  0.02084729  0.81932061  0.50247523  1
  H  H25  1  0.30218452  0.73765200  0.23066313  1
  H  H26  1  0.23362436  0.86117689  0.20609249  1
  H  H27  1  0.08621823  0.77275050  0.16112063  1
  H  H28  1  0.11958538  0.65083320  0.20334948  1
  H  H29  1  0.18822196  0.70034964  0.12091763  1
  H  H30  1  0.33456272  0.75921373  0.38563022  1
  H  H31  1  0.10363508  0.71794787  0.61540634  1
  H  H32  1  0.80013907  0.29643372  0.13578231  1
  H  H33  1  0.90643005  0.32530490  0.19378823  1
  H  H34  1  0.91377001  0.22815185  0.12196992  1
  H  H35  1  0.78870735  0.11657040  0.19866842  1
  H  H36  1  0.90683523  0.14081554  0.25526699  1
  H  H37  1  0.62069789  0.23785246  0.23214763  1
  H  H38  1  0.51367662  0.30767384  0.35118639  1
  H  H39  1  0.59738093  0.33131927  0.48917116  1
  H  H40  1  0.96943712  0.34065699  0.49054373  1
  H  H41  1  0.69873147  0.26723036  0.77184172  1
  H  H42  1  0.76728913  0.38943017  0.78867192  1
  H  H43  1  0.91983730  0.29948178  0.83033850  1
  H  H44  1  0.87898521  0.17556059  0.80210131  1
  H  H45  1  0.81929544  0.24081511  0.88236811  1
  H  H46  1  0.66840271  0.25563427  0.61680486  1
  H  H47  1  0.89914641  0.21697865  0.38783931  1
  H  H48  1  0.69935224  0.79115115  0.13475828  1
  H  H49  1  0.66193500  0.89716826  0.19214379  1
  H  H50  1  0.75781941  0.90916589  0.11751462  1
  H  H51  1  0.87740609  0.78895877  0.19338939  1
  H  H52  1  0.84468550  0.90822729  0.24800116  1
  H  H53  1  0.76334123  0.61681563  0.23148598  1
  H  H54  1  0.69759915  0.50899991  0.35375081  1
  H  H55  1  0.67167657  0.59415692  0.49157922  1
  H  H56  1  0.65963944  0.97209057  0.48917111  1
  H  H57  1  0.72675492  0.69856058  0.77090445  1
  H  H58  1  0.61156579  0.77952175  0.79128244  1
  H  H59  1  0.70870092  0.92280779  0.83181812  1
  H  H60  1  0.82961494  0.87250567  0.79995883  1
  H  H61  1  0.76160276  0.81465952  0.88125992  1
  H  H62  1  0.74172731  0.66764911  0.61755201  1
  H  H63  1  0.77538775  0.89861222  0.38434121  1
  Pb  Pb64  1  0.01370764  -0.00202416  0.97776431  1
  Pb  Pb65  1  0.99244459  0.50058783  0.01935295  1
  Pb  Pb66  1  0.50390618  0.00602053  0.01993126  1
  Pb  Pb67  1  0.50324027  0.50399978  0.00891247  1
  C  C68  1  0.32372936  0.17215915  0.76519888  1
  C  C69  1  0.27652259  0.23903864  0.69565691  1
  C  C70  1  0.25803042  0.34994131  0.70557549  1
  C  C71  1  0.22186056  0.41253899  0.63803844  1
  C  C72  1  0.20462191  0.36548649  0.56115543  1
  C  C73  1  0.22215630  0.25415718  0.55032678  1
  C  C74  1  0.20291231  0.20470817  0.46935186  1
  C  C75  1  0.16440184  0.10141793  0.46064735  1
  C  C76  1  0.19372623  0.19452608  0.32329189  1
  C  C77  1  0.20151400  0.22752833  0.23303133  1
  C  C78  1  0.22007623  0.25707135  0.38970732  1
  C  C79  1  0.25826055  0.19171464  0.61879242  1
  C  C80  1  0.17702849  0.67237308  0.76898074  1
  C  C81  1  0.23780974  0.72415874  0.69781836  1
  C  C82  1  0.34631841  0.74793653  0.70552652  1
  C  C83  1  0.40272989  0.78961004  0.63645644  1
  C  C84  1  0.35238786  0.80588956  0.55999354  1
  C  C85  1  0.24383487  0.78058910  0.55070942  1
  C  C86  1  0.19252038  0.78947746  0.46864315  1
  C  C87  1  0.08399506  0.80613151  0.45603825  1
  C  C88  1  0.18463644  0.78308222  0.32224718  1
  C  C89  1  0.22419368  0.77947680  0.23354804  1
  C  C90  1  0.24897545  0.77599804  0.39099818  1
  C  C91  1  0.18726471  0.74085022  0.62124413  1
  C  C92  1  0.83244554  0.17785108  0.23245020  1
  C  C93  1  0.76703479  0.22395950  0.30276548  1
  C  C94  1  0.65841948  0.24903426  0.29229934  1
  C  C95  1  0.59788170  0.28706907  0.35977060  1
  C  C96  1  0.64518295  0.30009384  0.43712690  1
  C  C97  1  0.75458723  0.27651660  0.44852859  1
  C  C98  1  0.80474949  0.29330420  0.52965510  1
  C  C99  1  0.90977305  0.32423965  0.53926657  1
  C  C100  1  0.81353220  0.30588421  0.67561317  1
  C  C101  1  0.77629970  0.30706891  0.76477792  1
  C  C102  1  0.75089354  0.28181426  0.60884726  1
  C  C103  1  0.81459744  0.23805546  0.38014613  1
  C  C104  1  0.81309688  0.83116075  0.22768255  1
  C  C105  1  0.77137400  0.76512407  0.30034903  1
  C  C106  1  0.75045629  0.65521692  0.29162813  1
  C  C107  1  0.71477881  0.59434712  0.36069787  1
  C  C108  1  0.70075651  0.64239734  0.43821073  1
  C  C109  1  0.72143854  0.75279413  0.44810709  1
  C  C110  1  0.70589141  0.80488052  0.52928558  1
  C  C111  1  0.67692272  0.91245280  0.53822582  1
  C  C112  1  0.69749223  0.81832202  0.67576923  1
  C  C113  1  0.69367494  0.78090195  0.76529461  1
  C  C114  1  0.71820834  0.75223323  0.60906713  1
  C  C115  1  0.75682423  0.81319579  0.37790629  1
  S  S116  1  0.14683639  0.07018821  0.35845270  1
  S  S117  1  0.05271476  0.80593846  0.35241442  1
  S  S118  1  0.94061914  0.34294530  0.64155489  1
  S  S119  1  0.66279355  0.94762046  0.64049311  1
  I  I120  1  0.26906728  0.91749484  0.98436601  1
  I  I121  1  0.23333165  0.57131979  0.00033793  1
  I  I122  1  0.77118883  0.06589984  0.00626019  1
  I  I123  1  0.74166023  0.40658392  0.00994325  1
  I  I124  1  0.06834675  0.24896410  0.99112714  1
  I  I125  1  0.92900768  0.75449917  0.00286665  1
  I  I126  1  0.40920748  0.24400487  0.00398922  1
  I  I127  1  0.58623615  0.75019256  0.00098432  1
  I  I128  1  0.00379325  0.99614086  0.76363883  1
  I  I129  1  0.04041340  0.99242252  0.16623532  1
  I  I130  1  0.96488134  0.50512660  0.82693059  1
  I  I131  1  0.01220966  0.48343591  0.22934161  1
  I  I132  1  0.54492640  0.02556755  0.82867396  1
  I  I133  1  0.49561191  0.99389016  0.23016351  1
  I  I134  1  0.50596065  0.49915944  0.80841621  1
  I  I135  1  0.46147666  0.50120971  0.20445880  1
  N  N136  1  0.24289948  0.14019306  0.83176384  1
  N  N137  1  0.26800525  0.15046768  0.18183756  1
  N  N138  1  0.14321710  0.75091285  0.83507034  1
  N  N139  1  0.15020420  0.72256554  0.17690456  1
  N  N140  1  0.86461894  0.26139160  0.16783063  1
  N  N141  1  0.85339205  0.25043659  0.82319302  1
  N  N142  1  0.72861362  0.85792497  0.16490486  1
  N  N143  1  0.75439517  0.85153035  0.82279451  1
