# generated using pymatgen
data_H20PbC22S5(I2N)2
_symmetry_space_group_name_H-M   'P 1'
_cell_length_a   12.10105291
_cell_length_b   12.07416636
_cell_length_c   27.94032843
_cell_angle_alpha   90.23964049
_cell_angle_beta   90.46149507
_cell_angle_gamma   89.79080963
_symmetry_Int_Tables_number   1
_chemical_formula_structural   H20PbC22S5(I2N)2
_chemical_formula_sum   'H80 Pb4 C88 S20 I16 N8'
_cell_volume   4082.17006457
_cell_formula_units_Z   4
loop_
 _symmetry_equiv_pos_site_id
 _symmetry_equiv_pos_as_xyz
  1  'x, y, z'
loop_
 _atom_site_type_symbol
 _atom_site_label
 _atom_site_symmetry_multiplicity
 _atom_site_fract_x
 _atom_site_fract_y
 _atom_site_fract_z
 _atom_site_occupancy
  H  H0  1  0.34482790  0.19968390  0.89213326  1
  H  H1  1  0.33668937  0.33450857  0.87738261  1
  H  H2  1  0.29265885  0.29477431  0.93089217  1
  H  H3  1  0.14742972  0.18185444  0.89588080  1
  H  H4  1  0.13262441  0.32682491  0.88555207  1
  H  H5  1  0.16887473  0.04995822  0.82319447  1
  H  H6  1  0.16204769  0.05712579  0.72943595  1
  H  H7  1  0.16717519  0.45161615  0.68697715  1
  H  H8  1  0.17833648  0.45138494  0.59342673  1
  H  H9  1  0.18473382  0.05739994  0.54648759  1
  H  H10  1  0.21260232  0.05719412  0.45405612  1
  H  H11  1  0.22515064  0.45104238  0.40860627  1
  H  H12  1  0.25844170  0.45071149  0.31631564  1
  H  H13  1  0.28155860  0.05585570  0.27292092  1
  H  H14  1  0.30470499  0.05146201  0.17943604  1
  H  H15  1  0.37070907  0.33099740  0.12335843  1
  H  H16  1  0.35675737  0.18727445  0.11008348  1
  H  H17  1  0.16416048  0.34384420  0.11931150  1
  H  H18  1  0.22539884  0.30632935  0.06862913  1
  H  H19  1  0.16230308  0.21052696  0.10171559  1
  H  H20  1  0.18941030  0.65620035  0.88934424  1
  H  H21  1  0.32424490  0.66179929  0.87519352  1
  H  H22  1  0.28458895  0.70408553  0.92920196  1
  H  H23  1  0.17648266  0.85524714  0.89617544  1
  H  H24  1  0.32112409  0.86589842  0.88625885  1
  H  H25  1  0.04377662  0.83094680  0.82201642  1
  H  H26  1  0.05293082  0.83580017  0.72831866  1
  H  H27  1  0.44913996  0.83028718  0.68882914  1
  H  H28  1  0.45215487  0.81777468  0.59533140  1
  H  H29  1  0.05984618  0.81831811  0.54674845  1
  H  H30  1  0.05932330  0.79029998  0.45388844  1
  H  H31  1  0.45078420  0.77519425  0.40851584  1
  H  H32  1  0.44904175  0.74072495  0.31609624  1
  H  H33  1  0.05519483  0.71483603  0.27375478  1
  H  H34  1  0.04844461  0.69337577  0.18002329  1
  H  H35  1  0.32756068  0.63984579  0.12099665  1
  H  H36  1  0.18273247  0.64577733  0.10959731  1
  H  H37  1  0.33018753  0.84401199  0.11951221  1
  H  H38  1  0.28173731  0.78834056  0.06914953  1
  H  H39  1  0.19301102  0.84609677  0.10843614  1
  H  H40  1  0.79607116  0.15496332  0.10624903  1
  H  H41  1  0.66149097  0.16119082  0.12036490  1
  H  H42  1  0.70281206  0.20904783  0.06786562  1
  H  H43  1  0.81405878  0.35282482  0.10446549  1
  H  H44  1  0.66937274  0.36661221  0.11411385  1
  H  H45  1  0.94424070  0.33782963  0.17767395  1
  H  H46  1  0.93564685  0.34618893  0.27146334  1
  H  H47  1  0.54266824  0.32299461  0.31353394  1
  H  H48  1  0.54499286  0.31151884  0.40692665  1
  H  H49  1  0.93984531  0.31501559  0.45277681  1
  H  H50  1  0.94336997  0.29009769  0.54552708  1
  H  H51  1  0.55224719  0.27687164  0.59188885  1
  H  H52  1  0.55328681  0.24269217  0.68432303  1
  H  H53  1  0.94641007  0.21427221  0.72812497  1
  H  H54  1  0.95057159  0.18616330  0.82126529  1
  H  H55  1  0.67258656  0.11999895  0.87631535  1
  H  H56  1  0.81583117  0.13664198  0.89029994  1
  H  H57  1  0.65902617  0.32829473  0.87936260  1
  H  H58  1  0.68724882  0.26486482  0.93105474  1
  H  H59  1  0.78838447  0.32857997  0.90133940  1
  H  H60  1  0.85096424  0.80795556  0.11099377  1
  H  H61  1  0.84663240  0.67037957  0.12060367  1
  H  H62  1  0.80154040  0.72015698  0.06883131  1
  H  H63  1  0.65006370  0.81754136  0.10403443  1
  H  H64  1  0.64395392  0.67200127  0.11318347  1
  H  H65  1  0.66288185  0.94814060  0.17729638  1
  H  H66  1  0.65155369  0.93866004  0.27101769  1
  H  H67  1  0.66833063  0.54510818  0.31310796  1
  H  H68  1  0.68002093  0.54526409  0.40645199  1
  H  H69  1  0.68151026  0.93926553  0.45270738  1
  H  H70  1  0.70697618  0.94169505  0.54568660  1
  H  H71  1  0.72471330  0.55015851  0.59358829  1
  H  H72  1  0.75964089  0.55467066  0.68600084  1
  H  H73  1  0.78754604  0.95146465  0.72639418  1
  H  H74  1  0.81675029  0.95903659  0.81954550  1
  H  H75  1  0.88034027  0.68196358  0.87792998  1
  H  H76  1  0.86296455  0.82562880  0.89066117  1
  H  H77  1  0.67304364  0.66839907  0.87853887  1
  H  H78  1  0.73311127  0.70051052  0.93074855  1
  H  H79  1  0.66987200  0.79960598  0.89860828  1
  Pb  Pb80  1  0.00194721  0.00200899  0.00848384  1
  Pb  Pb81  1  0.00235611  0.49368379  0.99246374  1
  Pb  Pb82  1  0.49229458  0.99696965  0.99307070  1
  Pb  Pb83  1  0.50636578  0.50398089  0.99734267  1
  C  C84  1  0.18073279  0.25260331  0.87608070  1
  C  C85  1  0.17746408  0.22914477  0.82388042  1
  C  C86  1  0.17220519  0.12597319  0.80255316  1
  C  C87  1  0.16810973  0.13026560  0.75218895  1
  C  C88  1  0.17157777  0.23751058  0.73440837  1
  C  C89  1  0.17206803  0.27107833  0.68497292  1
  C  C90  1  0.17115520  0.37655276  0.66527904  1
  C  C91  1  0.17694761  0.37633079  0.61492976  1
  C  C92  1  0.18216095  0.27055970  0.59505286  1
  C  C93  1  0.19294066  0.23826058  0.54569233  1
  C  C94  1  0.19441032  0.13265061  0.52555406  1
  C  C95  1  0.20982585  0.13252729  0.47565542  1
  C  C96  1  0.22062590  0.23806506  0.45642808  1
  C  C97  1  0.23778711  0.27036341  0.40756249  1
  C  C98  1  0.23872605  0.37591475  0.38768789  1
  C  C99  1  0.25675826  0.37577440  0.33791497  1
  C  C100  1  0.26994424  0.27022354  0.31867503  1
  C  C101  1  0.28488947  0.23657512  0.26957602  1
  C  C102  1  0.28821992  0.12971069  0.25087512  1
  C  C103  1  0.29956634  0.12697016  0.20069622  1
  C  C104  1  0.30567835  0.23088437  0.18047179  1
  C  C105  1  0.31896833  0.25762135  0.12905869  1
  C  C106  1  0.24607661  0.82029107  0.87596241  1
  C  C107  1  0.22288851  0.82607709  0.82377763  1
  C  C108  1  0.12024910  0.82889757  0.80186025  1
  C  C109  1  0.12563398  0.83234237  0.75152303  1
  C  C110  1  0.23334965  0.83135784  0.73443555  1
  C  C111  1  0.26889669  0.83022271  0.68534023  1
  C  C112  1  0.37487219  0.82821783  0.66654217  1
  C  C113  1  0.37648837  0.82157833  0.61617952  1
  C  C114  1  0.27162596  0.81861049  0.59543431  1
  C  C115  1  0.24014725  0.80806536  0.54591195  1
  C  C116  1  0.13461264  0.80777596  0.52569075  1
  C  C117  1  0.13428482  0.79234146  0.47573776  1
  C  C118  1  0.23952571  0.78030093  0.45661394  1
  C  C119  1  0.27085295  0.76241186  0.40766509  1
  C  C120  1  0.37566833  0.76141773  0.38763719  1
  C  C121  1  0.37477238  0.74277990  0.33782802  1
  C  C122  1  0.26940197  0.72902841  0.31871989  1
  C  C123  1  0.23529147  0.71373333  0.26961161  1
  C  C124  1  0.12820366  0.70907935  0.25132232  1
  C  C125  1  0.12418177  0.69851727  0.20110240  1
  C  C126  1  0.22732582  0.69455179  0.18040606  1
  C  C127  1  0.25149619  0.68661108  0.12850883  1
  C  C128  1  0.74350922  0.31854792  0.12395421  1
  C  C129  1  0.76620665  0.32106100  0.17625017  1
  C  C130  1  0.86842837  0.33129997  0.19807906  1
  C  C131  1  0.86335530  0.33666084  0.24834751  1
  C  C132  1  0.75642423  0.32869464  0.26577927  1
  C  C133  1  0.72310845  0.32504643  0.31516837  1
  C  C134  1  0.61823436  0.32132691  0.33500876  1
  C  C135  1  0.61954903  0.31525353  0.38539758  1
  C  C136  1  0.72560202  0.31410721  0.40515851  1
  C  C137  1  0.75950356  0.30548614  0.45449197  1
  C  C138  1  0.86558494  0.30564987  0.47417409  1
  C  C139  1  0.86757702  0.29208349  0.52420471  1
  C  C140  1  0.76302641  0.28134716  0.54402559  1
  C  C141  1  0.73236243  0.26533731  0.59314760  1
  C  C142  1  0.62724173  0.26392055  0.61298980  1
  C  C143  1  0.62776021  0.24552893  0.66272620  1
  C  C144  1  0.73314187  0.23254855  0.68205994  1
  C  C145  1  0.76612988  0.21518156  0.73116529  1
  C  C146  1  0.87260327  0.20853554  0.74996509  1
  C  C147  1  0.87521278  0.19450564  0.80006106  1
  C  C148  1  0.77138880  0.18947331  0.82002681  1
  C  C149  1  0.74487004  0.17350504  0.87127607  1
  C  C150  1  0.68752203  0.74814713  0.12376689  1
  C  C151  1  0.68161559  0.76985080  0.17607956  1
  C  C152  1  0.66959737  0.87205736  0.19777669  1
  C  C153  1  0.66284393  0.86658974  0.24797589  1
  C  C154  1  0.67143539  0.75929588  0.26548348  1
  C  C155  1  0.67406748  0.72554790  0.31490106  1
  C  C156  1  0.67333136  0.62026514  0.33465150  1
  C  C157  1  0.67957858  0.62044743  0.38504846  1
  C  C158  1  0.68512962  0.72607650  0.40493661  1
  C  C159  1  0.69401904  0.75876996  0.45439042  1
  C  C160  1  0.69248349  0.86479203  0.47415268  1
  C  C161  1  0.70622330  0.86609675  0.52422695  1
  C  C162  1  0.71847484  0.76104453  0.54397757  1
  C  C163  1  0.73524114  0.73078252  0.59325850  1
  C  C164  1  0.73746402  0.62621971  0.61400471  1
  C  C165  1  0.75636337  0.62867213  0.66383239  1
  C  C166  1  0.76908619  0.73497994  0.68230137  1
  C  C167  1  0.78686610  0.77059984  0.73108074  1
  C  C168  1  0.79361577  0.87819204  0.74889925  1
  C  C169  1  0.80797709  0.88270598  0.79903831  1
  C  C170  1  0.81289317  0.77943391  0.82001591  1
  C  C171  1  0.82676587  0.75435965  0.87164595  1
  S  S172  1  0.29839261  0.33324873  0.22407773  1
  S  S173  1  0.26137707  0.17110411  0.36349900  1
  S  S174  1  0.21142784  0.33757692  0.50150130  1
  S  S175  1  0.17937009  0.17131793  0.63994765  1
  S  S176  1  0.17674610  0.33297601  0.78110020  1
  S  S177  1  0.33067174  0.70244751  0.22361669  1
  S  S178  1  0.17110401  0.73796613  0.36372551  1
  S  S179  1  0.33905845  0.78870057  0.50178507  1
  S  S180  1  0.17104021  0.82463953  0.63947822  1
  S  S181  1  0.32730727  0.82925355  0.78171483  1
  S  S182  1  0.66923583  0.20085257  0.77634514  1
  S  S183  1  0.83194954  0.24279161  0.63735305  1
  S  S184  1  0.66215075  0.28815020  0.49932318  1
  S  S185  1  0.82348761  0.32138898  0.36010263  1
  S  S186  1  0.66214566  0.31818561  0.21866997  1
  S  S187  1  0.80172446  0.67551331  0.77723726  1
  S  S188  1  0.75799165  0.83215314  0.63667546  1
  S  S189  1  0.71301851  0.66056207  0.49916747  1
  S  S190  1  0.68305252  0.82531900  0.35994648  1
  S  S191  1  0.68445633  0.66524020  0.21851777  1
  I  I192  1  0.24555209  0.09344337  0.00409331  1
  I  I193  1  0.25499069  0.43669650  0.99737216  1
  I  I194  1  0.74331426  0.92667132  0.99956799  1
  I  I195  1  0.75409166  0.57716104  0.00040539  1
  I  I196  1  0.90481700  0.25080004  0.00125410  1
  I  I197  1  0.06656354  0.74833315  0.00111463  1
  I  I198  1  0.56028246  0.24951865  0.00076363  1
  I  I199  1  0.41349892  0.74897340  0.99762028  1
  I  I200  1  0.99847172  0.00588982  0.89873902  1
  I  I201  1  -0.00113490  0.97864192  0.12690879  1
  I  I202  1  0.01741384  0.51369801  0.87745807  1
  I  I203  1  0.00526121  0.49996268  0.10799991  1
  I  I204  1  0.47442602  0.02872883  0.87832980  1
  I  I205  1  0.49109019  0.99873137  0.10811273  1
  I  I206  1  0.50723125  0.50318654  0.87472846  1
  I  I207  1  0.49953993  0.50554340  0.10909642  1
  N  N208  1  0.29658121  0.27127739  0.89499679  1
  N  N209  1  0.21033280  0.28075666  0.10364341  1
  N  N210  1  0.26146164  0.70248983  0.89312374  1
  N  N211  1  0.26455734  0.79890179  0.10535212  1
  N  N212  1  0.72542265  0.20293280  0.10390686  1
  N  N213  1  0.71851512  0.28107998  0.89693759  1
  N  N214  1  0.80447505  0.73652031  0.10541603  1
  N  N215  1  0.71824145  0.72956297  0.89595587  1
