# generated using pymatgen
data_H20PbC22S(I2N)2
_symmetry_space_group_name_H-M   'P 1'
_cell_length_a   12.40638017
_cell_length_b   12.22054019
_cell_length_c   22.08469985
_cell_angle_alpha   88.70009852
_cell_angle_beta   88.82173124
_cell_angle_gamma   89.36457322
_symmetry_Int_Tables_number   1
_chemical_formula_structural   H20PbC22S(I2N)2
_chemical_formula_sum   'H80 Pb4 C88 S4 I16 N8'
_cell_volume   3346.56171349
_cell_formula_units_Z   4
loop_
 _symmetry_equiv_pos_site_id
 _symmetry_equiv_pos_as_xyz
  1  'x, y, z'
loop_
 _atom_site_type_symbol
 _atom_site_label
 _atom_site_symmetry_multiplicity
 _atom_site_fract_x
 _atom_site_fract_y
 _atom_site_fract_z
 _atom_site_occupancy
  H  H0  1  0.29992086  0.21051951  0.91637840  1
  H  H1  1  0.33751606  0.31220855  0.86754152  1
  H  H2  1  0.37013041  0.18126217  0.85374792  1
  H  H3  1  0.18692515  0.12757168  0.84378223  1
  H  H4  1  0.14231869  0.25939318  0.86599715  1
  H  H5  1  0.20172563  0.42461632  0.80318533  1
  H  H6  1  0.21255299  0.50251215  0.69877804  1
  H  H7  1  0.23382580  0.47512745  0.59005790  1
  H  H8  1  0.26088758  0.45090951  0.48205842  1
  H  H9  1  0.28659193  0.43100235  0.37339468  1
  H  H10  1  0.31337464  0.38989064  0.24975756  1
  H  H11  1  0.39741886  0.16191399  0.14913348  1
  H  H12  1  0.36326607  0.30438292  0.14859321  1
  H  H13  1  0.18468607  0.26299987  0.12541996  1
  H  H14  1  0.19387879  0.13175162  0.14702270  1
  H  H15  1  0.25634145  0.17442331  0.08367377  1
  H  H16  1  0.28080523  0.02028191  0.40139725  1
  H  H17  1  0.25464117  0.04346488  0.51239107  1
  H  H18  1  0.22964464  0.06830505  0.62407511  1
  H  H19  1  0.21239262  0.09625599  0.73578242  1
  H  H20  1  0.19659838  0.69488242  0.91488235  1
  H  H21  1  0.29682404  0.65638353  0.86748833  1
  H  H22  1  0.16622262  0.63335165  0.85119897  1
  H  H23  1  0.12597245  0.82554048  0.84279750  1
  H  H24  1  0.25849707  0.85546629  0.86589736  1
  H  H25  1  0.41790520  0.80623662  0.80254613  1
  H  H26  1  0.49458673  0.79052949  0.69860237  1
  H  H27  1  0.46805439  0.76437654  0.59051989  1
  H  H28  1  0.44439155  0.73324327  0.48326326  1
  H  H29  1  0.42458153  0.70167623  0.37547285  1
  H  H30  1  0.38389277  0.67515557  0.25252543  1
  H  H31  1  0.15944102  0.60836006  0.14958215  1
  H  H32  1  0.29997163  0.63991760  0.15059041  1
  H  H33  1  0.26216406  0.82649914  0.13688880  1
  H  H34  1  0.12977787  0.81520479  0.15470667  1
  H  H35  1  0.17611006  0.76439518  0.08993760  1
  H  H36  1  0.02008482  0.71741843  0.40300106  1
  H  H37  1  0.04305172  0.74545379  0.51302541  1
  H  H38  1  0.06725946  0.77272470  0.62379581  1
  H  H39  1  0.09441486  0.79234216  0.73489754  1
  H  H40  1  0.82635146  0.22880603  0.08226725  1
  H  H41  1  0.70386022  0.20190999  0.11194673  1
  H  H42  1  0.81801370  0.14751202  0.14367594  1
  H  H43  1  0.88080762  0.33605224  0.16033240  1
  H  H44  1  0.75225945  0.38268792  0.13698393  1
  H  H45  1  0.58469655  0.31049424  0.19601952  1
  H  H46  1  0.50800968  0.28516728  0.29936537  1
  H  H47  1  0.53318385  0.25615108  0.40818357  1
  H  H48  1  0.55646749  0.22648093  0.51656379  1
  H  H49  1  0.57528822  0.20319227  0.62542195  1
  H  H50  1  0.61184925  0.19291381  0.74912667  1
  H  H51  1  0.83387735  0.14368030  0.85777002  1
  H  H52  1  0.69157428  0.16282882  0.85218288  1
  H  H53  1  0.70987899  0.35413157  0.86270749  1
  H  H54  1  0.84548395  0.35120578  0.85480735  1
  H  H55  1  0.78662788  0.29497388  0.91571306  1
  H  H56  1  0.97928187  0.22734380  0.60048216  1
  H  H57  1  0.95756491  0.24496014  0.48843185  1
  H  H58  1  0.93397363  0.26929762  0.37662915  1
  H  H59  1  0.90757142  0.29386925  0.26520109  1
  H  H60  1  0.77780418  0.81923861  0.08507011  1
  H  H61  1  0.82348562  0.71298179  0.12939267  1
  H  H62  1  0.84269600  0.84324154  0.14859051  1
  H  H63  1  0.65170118  0.87869272  0.16170334  1
  H  H64  1  0.62499121  0.74423237  0.13763930  1
  H  H65  1  0.68048798  0.58128187  0.19901892  1
  H  H66  1  0.70611333  0.50236739  0.30163024  1
  H  H67  1  0.73960269  0.52797549  0.40959334  1
  H  H68  1  0.77273784  0.55204430  0.51711139  1
  H  H69  1  0.79911982  0.57244085  0.62536680  1
  H  H70  1  0.81541567  0.61292952  0.74868848  1
  H  H71  1  0.86883628  0.84332467  0.85326340  1
  H  H72  1  0.84640714  0.69927347  0.85160517  1
  H  H73  1  0.65824419  0.72993049  0.86620566  1
  H  H74  1  0.66411295  0.86425059  0.85040533  1
  H  H75  1  0.71784726  0.81419696  0.91323425  1
  H  H76  1  0.78285774  0.98289780  0.59754145  1
  H  H77  1  0.75900112  0.95942490  0.48707304  1
  H  H78  1  0.72973696  0.93501218  0.37682185  1
  H  H79  1  0.70128137  0.90861170  0.26689768  1
  Pb  Pb80  1  0.99733626  0.00371667  0.00538778  1
  Pb  Pb81  1  0.98596385  0.51427038  0.99852641  1
  Pb  Pb82  1  0.48856785  0.98263568  0.00249246  1
  Pb  Pb83  1  0.48611490  0.48056448  0.99753863  1
  C  C84  1  0.20444584  0.21508511  0.83972228  1
  C  C85  1  0.20934276  0.25520113  0.77516273  1
  C  C86  1  0.20883853  0.37116290  0.76445066  1
  C  C87  1  0.21402813  0.41411398  0.70695474  1
  C  C88  1  0.22220390  0.34394021  0.65616383  1
  C  C89  1  0.23291327  0.38645162  0.59751425  1
  C  C90  1  0.24485891  0.31798269  0.54731538  1
  C  C91  1  0.25917177  0.36204013  0.48856820  1
  C  C92  1  0.27125171  0.29544280  0.43824253  1
  C  C93  1  0.28451702  0.34205934  0.37915107  1
  C  C94  1  0.29409684  0.27544743  0.32961794  1
  C  C95  1  0.30746859  0.30565487  0.26677905  1
  C  C96  1  0.31672813  0.21761186  0.23002155  1
  C  C97  1  0.33650492  0.22240191  0.16340403  1
  C  C98  1  0.29272952  0.15764878  0.33862895  1
  C  C99  1  0.28117226  0.10918601  0.39525943  1
  C  C100  1  0.26927365  0.17657990  0.44697996  1
  C  C101  1  0.25565400  0.13239953  0.50580536  1
  C  C102  1  0.24332710  0.19949015  0.55668229  1
  C  C103  1  0.23061118  0.15704589  0.61656373  1
  C  C104  1  0.22147263  0.22573334  0.66624808  1
  C  C105  1  0.21392562  0.18475880  0.72749296  1
  C  C106  1  0.21076069  0.79997066  0.83885491  1
  C  C107  1  0.25092069  0.79680794  0.77449704  1
  C  C108  1  0.36529508  0.79725397  0.76402873  1
  C  C109  1  0.40751353  0.78945232  0.70670544  1
  C  C110  1  0.33867422  0.77933502  0.65605760  1
  C  C111  1  0.38068228  0.76617616  0.59781971  1
  C  C112  1  0.31343942  0.75300542  0.54792226  1
  C  C113  1  0.35683660  0.73594627  0.48970172  1
  C  C114  1  0.29128157  0.72206653  0.43979932  1
  C  C115  1  0.33697734  0.70486584  0.38127708  1
  C  C116  1  0.27125781  0.69388339  0.33212822  1
  C  C117  1  0.30099906  0.67986611  0.26968573  1
  C  C118  1  0.21442300  0.67459550  0.23289917  1
  C  C119  1  0.21900551  0.66602755  0.16584492  1
  C  C120  1  0.15518030  0.69909867  0.34088793  1
  C  C121  1  0.10763244  0.71394066  0.39701653  1
  C  C122  1  0.17417469  0.72625160  0.44835276  1
  C  C123  1  0.13065549  0.74283551  0.50659143  1
  C  C124  1  0.19669595  0.75598411  0.55710279  1
  C  C125  1  0.15470492  0.77087382  0.61646814  1
  C  C126  1  0.22221484  0.78120656  0.66590374  1
  C  C127  1  0.18168032  0.79087343  0.72680969  1
  C  C128  1  0.79499084  0.31616680  0.16118513  1
  C  C129  1  0.75207236  0.29966940  0.22459994  1
  C  C130  1  0.63757565  0.29756930  0.23449889  1
  C  C131  1  0.59505295  0.28479911  0.29172425  1
  C  C132  1  0.66317559  0.27267046  0.34292540  1
  C  C133  1  0.62061408  0.25826918  0.40125653  1
  C  C134  1  0.68757283  0.24623054  0.45183979  1
  C  C135  1  0.64398098  0.23033965  0.51043137  1
  C  C136  1  0.70915382  0.22124757  0.56123676  1
  C  C137  1  0.66274948  0.20868560  0.62018152  1
  C  C138  1  0.72711213  0.20677992  0.67046537  1
  C  C139  1  0.69508042  0.20078479  0.73311145  1
  C  C140  1  0.77952264  0.20492083  0.77148347  1
  C  C141  1  0.77033840  0.19696689  0.83883034  1
  C  C142  1  0.84315224  0.21456429  0.66266448  1
  C  C143  1  0.89177154  0.22272289  0.60600319  1
  C  C144  1  0.82622089  0.22766938  0.55344200  1
  C  C145  1  0.87001802  0.24093255  0.49462077  1
  C  C146  1  0.80434236  0.25086479  0.44326353  1
  C  C147  1  0.84658502  0.26585052  0.38363511  1
  C  C148  1  0.77955987  0.27602147  0.33363233  1
  C  C149  1  0.82039154  0.28995603  0.27281649  1
  C  C150  1  0.68087999  0.79375136  0.16328295  1
  C  C151  1  0.69199653  0.75066073  0.22699050  1
  C  C152  1  0.69277399  0.63446791  0.23719240  1
  C  C153  1  0.70621103  0.59084624  0.29404274  1
  C  C154  1  0.72084785  0.65986597  0.34454514  1
  C  C155  1  0.73765033  0.61675112  0.40246801  1
  C  C156  1  0.75255731  0.68482162  0.45228246  1
  C  C157  1  0.76998505  0.64092436  0.51057369  1
  C  C158  1  0.78201603  0.70758678  0.56059963  1
  C  C159  1  0.79577548  0.66133986  0.61949918  1
  C  C160  1  0.80176380  0.72788761  0.66902506  1
  C  C161  1  0.80955482  0.69723479  0.73186135  1
  C  C162  1  0.80961913  0.78471767  0.76915086  1
  C  C163  1  0.81563465  0.77973762  0.83639296  1
  C  C164  1  0.79673126  0.84575654  0.66023913  1
  C  C165  1  0.78637232  0.89406925  0.60366651  1
  C  C166  1  0.77747554  0.82647722  0.55207986  1
  C  C167  1  0.76217193  0.87051651  0.49364700  1
  C  C168  1  0.74906638  0.80340602  0.44322026  1
  C  C169  1  0.73203408  0.84624888  0.38411033  1
  C  C170  1  0.71854789  0.77811202  0.33492787  1
  C  C171  1  0.70336982  0.81994015  0.27458980  1
  S  S172  1  0.31039468  0.09130795  0.26979224  1
  S  S173  1  0.08986374  0.68369553  0.27228922  1
  S  S174  1  0.90530880  0.21306939  0.73313462  1
  S  S175  1  0.80408508  0.91125356  0.72964064  1
  I  I176  1  0.24705108  0.05466622  0.99162807  1
  I  I177  1  0.23720125  0.44453387  0.98547585  1
  I  I178  1  0.74802514  0.95424356  0.00073204  1
  I  I179  1  0.73895375  0.50558205  0.99228305  1
  I  I180  1  0.97208445  0.25661950  0.00811227  1
  I  I181  1  0.06764970  0.75765171  0.99534667  1
  I  I182  1  0.54430050  0.22649487  0.03500432  1
  I  I183  1  0.47531335  0.73389270  0.96588866  1
  I  I184  1  0.99819796  0.01091839  0.86601060  1
  I  I185  1  0.99137462  0.00187826  0.16136771  1
  I  I186  1  0.98629082  0.51169999  0.84956599  1
  I  I187  1  0.95134141  0.55744529  0.13990199  1
  I  I188  1  0.50965202  0.02093345  0.85385670  1
  I  I189  1  0.42417065  0.93242987  0.14149616  1
  I  I190  1  0.50615403  0.45362616  0.84754465  1
  I  I191  1  0.47900373  0.51207302  0.13770691  1
  N  N192  1  0.30954252  0.23234965  0.87086612  1
  N  N193  1  0.23652032  0.19691462  0.12804807  1
  N  N194  1  0.21959866  0.68838416  0.86938388  1
  N  N195  1  0.19503488  0.77469795  0.13519076  1
  N  N196  1  0.78337843  0.21612698  0.12322058  1
  N  N197  1  0.77862315  0.30591103  0.86944913  1
  N  N198  1  0.78767065  0.79114706  0.12959757  1
  N  N199  1  0.70738368  0.79723722  0.86774754  1
