# generated using pymatgen
data_H12PbC14S5(I2N)2
_symmetry_space_group_name_H-M   'P 1'
_cell_length_a   12.22896564
_cell_length_b   12.25210309
_cell_length_c   20.34307478
_cell_angle_alpha   90.98156276
_cell_angle_beta   88.87584303
_cell_angle_gamma   90.09589098
_symmetry_Int_Tables_number   1
_chemical_formula_structural   H12PbC14S5(I2N)2
_chemical_formula_sum   'H48 Pb4 C56 S20 I16 N8'
_cell_volume   3046.97747578
_cell_formula_units_Z   4
loop_
 _symmetry_equiv_pos_site_id
 _symmetry_equiv_pos_as_xyz
  1  'x, y, z'
loop_
 _atom_site_type_symbol
 _atom_site_label
 _atom_site_symmetry_multiplicity
 _atom_site_fract_x
 _atom_site_fract_y
 _atom_site_fract_z
 _atom_site_occupancy
  H  H0  1  0.24105536  0.15588117  0.90641004  1
  H  H1  1  0.18902766  0.25246109  0.85739658  1
  H  H2  1  0.17247750  0.12002837  0.83892211  1
  H  H3  1  0.37102189  0.09512114  0.82544632  1
  H  H4  1  0.38803787  0.23528363  0.84522223  1
  H  H5  1  0.33452901  0.38311144  0.75695632  1
  H  H6  1  0.17028216  0.30846459  0.15757526  1
  H  H7  1  0.10880988  0.18104964  0.17569948  1
  H  H8  1  0.32563474  0.22008693  0.11680463  1
  H  H9  1  0.22997221  0.12796598  0.10102066  1
  H  H10  1  0.31304240  0.11126289  0.16435626  1
  H  H11  1  0.22072756  0.42333262  0.25540033  1
  H  H12  1  0.13052721  0.75144767  0.90463634  1
  H  H13  1  0.24337816  0.79695085  0.86796090  1
  H  H14  1  0.12129003  0.82508156  0.83639526  1
  H  H15  1  0.08979913  0.62222466  0.82464975  1
  H  H16  1  0.22905183  0.60604702  0.84451482  1
  H  H17  1  0.38154586  0.66251431  0.75508142  1
  H  H18  1  0.32885682  0.80008156  0.15429622  1
  H  H19  1  0.21382227  0.88333382  0.17314012  1
  H  H20  1  0.21640569  0.67228205  0.10936753  1
  H  H21  1  0.12506455  0.77371026  0.11081089  1
  H  H22  1  0.12108718  0.67948434  0.16904145  1
  H  H23  1  0.43580112  0.76718373  0.25323395  1
  H  H24  1  0.84545432  0.26837456  0.09400003  1
  H  H25  1  0.74582545  0.31841715  0.14221913  1
  H  H26  1  0.87665211  0.34248957  0.16040539  1
  H  H27  1  0.90543861  0.14255591  0.17195714  1
  H  H28  1  0.76523314  0.12372613  0.15591071  1
  H  H29  1  0.61764604  0.16954259  0.24768048  1
  H  H30  1  0.68739917  0.35174788  0.84599373  1
  H  H31  1  0.82152008  0.40289125  0.83056040  1
  H  H32  1  0.76450370  0.17286085  0.86050612  1
  H  H33  1  0.82193022  0.26802920  0.91054376  1
  H  H34  1  0.89312184  0.22053804  0.84468342  1
  H  H35  1  0.57509916  0.29454507  0.75070546  1
  H  H36  1  0.72037201  0.83340962  0.09483819  1
  H  H37  1  0.67579127  0.73505560  0.14437648  1
  H  H38  1  0.65084304  0.86719613  0.16275388  1
  H  H39  1  0.84749127  0.90340837  0.17245774  1
  H  H40  1  0.87357948  0.76498875  0.15265093  1
  H  H41  1  0.82775897  0.61463075  0.24314563  1
  H  H42  1  0.65050059  0.68837511  0.84404316  1
  H  H43  1  0.59385483  0.81828154  0.82789662  1
  H  H44  1  0.82483536  0.78085193  0.86477333  1
  H  H45  1  0.72148994  0.83275761  0.90979229  1
  H  H46  1  0.77008871  0.90167142  0.84467429  1
  H  H47  1  0.70754253  0.57426456  0.74626386  1
  Pb  Pb48  1  0.00933096  0.98930684  0.97545976  1
  Pb  Pb49  1  0.02117245  0.48041292  0.99259496  1
  Pb  Pb50  1  0.52046729  0.01676024  0.99620578  1
  Pb  Pb51  1  0.50441737  0.50221343  0.00223297  1
  C  C52  1  0.33503903  0.17625731  0.81987278  1
  C  C53  1  0.32267091  0.20634474  0.74990368  1
  C  C54  1  0.32219299  0.31094702  0.72589448  1
  C  C55  1  0.30630937  0.31077636  0.65729722  1
  C  C56  1  0.28218897  0.31766704  0.53761550  1
  C  C57  1  0.28200548  0.20943269  0.55980541  1
  C  C58  1  0.25691455  0.21926382  0.43934050  1
  C  C59  1  0.24086481  0.22674422  0.37062767  1
  C  C60  1  0.21340123  0.24660512  0.25049036  1
  C  C61  1  0.18392005  0.22958540  0.18071083  1
  C  C62  1  0.22544627  0.34665577  0.28143992  1
  C  C63  1  0.24065258  0.33572856  0.34971936  1
  C  C64  1  0.26765331  0.32331742  0.46895795  1
  C  C65  1  0.29533258  0.20561272  0.62894302  1
  C  C66  1  0.17118478  0.65904729  0.81954372  1
  C  C67  1  0.20452938  0.67427440  0.74989075  1
  C  C68  1  0.31024030  0.67641141  0.72493805  1
  C  C69  1  0.31190007  0.69370049  0.65645177  1
  C  C70  1  0.32120339  0.71891627  0.53681510  1
  C  C71  1  0.21221051  0.71715594  0.56028168  1
  C  C72  1  0.22465913  0.74276506  0.43968285  1
  C  C73  1  0.23425704  0.75677751  0.37059221  1
  C  C74  1  0.25944265  0.77527120  0.24938029  1
  C  C75  1  0.24838275  0.80131127  0.17893126  1
  C  C76  1  0.35803248  0.76584238  0.28005929  1
  C  C77  1  0.34422380  0.75612588  0.34874645  1
  C  C78  1  0.32823538  0.73346789  0.46815297  1
  C  C79  1  0.20709063  0.70310663  0.62937440  1
  C  C80  1  0.82380055  0.17781024  0.18056388  1
  C  C81  1  0.79407967  0.18977492  0.25122433  1
  C  C82  1  0.68947411  0.18340567  0.27760774  1
  C  C83  1  0.68939901  0.19359670  0.34676954  1
  C  C84  1  0.68268919  0.21462775  0.46723978  1
  C  C85  1  0.79094931  0.21787538  0.44256152  1
  C  C86  1  0.78111191  0.24570934  0.56344193  1
  C  C87  1  0.77339765  0.26602343  0.63230748  1
  C  C88  1  0.75212680  0.30445246  0.75238296  1
  C  C89  1  0.76717953  0.33263831  0.82295396  1
  C  C90  1  0.65228044  0.28854977  0.72338768  1
  C  C91  1  0.66400862  0.26680916  0.65524064  1
  C  C92  1  0.67708476  0.23110707  0.53612569  1
  C  C93  1  0.79459449  0.20631382  0.37305572  1
  C  C94  1  0.81700731  0.82016523  0.17947180  1
  C  C95  1  0.80933690  0.79078734  0.24996790  1
  C  C96  1  0.81569855  0.68680446  0.27444515  1
  C  C97  1  0.80656776  0.68732465  0.34368771  1
  C  C98  1  0.78604854  0.68073104  0.46412457  1
  C  C99  1  0.78295614  0.78879392  0.44175699  1
  C  C100  1  0.75630936  0.77879126  0.56260634  1
  C  C101  1  0.73698712  0.77113679  0.63141914  1
  C  C102  1  0.69951088  0.75115287  0.75110388  1
  C  C103  1  0.66725356  0.76743596  0.82127081  1
  C  C104  1  0.71561204  0.65111450  0.72041008  1
  C  C105  1  0.73689915  0.66213210  0.65231213  1
  C  C106  1  0.77036802  0.67494315  0.53301039  1
  C  C107  1  0.79432188  0.79241821  0.37218077  1
  S  S108  1  0.29925971  0.41389003  0.59996368  1
  S  S109  1  0.26501648  0.11457090  0.49596459  1
  S  S110  1  0.22019334  0.13793950  0.30520620  1
  S  S111  1  0.25907980  0.42915210  0.41376286  1
  S  S112  1  0.30493519  0.10718588  0.68813843  1
  S  S113  1  0.41666867  0.70328624  0.59786103  1
  S  S114  1  0.11846606  0.73326290  0.49772187  1
  S  S115  1  0.14797992  0.77341167  0.30510871  1
  S  S116  1  0.43594037  0.74076107  0.41189013  1
  S  S117  1  0.10681796  0.69150361  0.68943548  1
  S  S118  1  0.58618252  0.19562531  0.40672818  1
  S  S119  1  0.88588742  0.23895558  0.50423625  1
  S  S120  1  0.86165581  0.29366618  0.69575382  1
  S  S121  1  0.57088619  0.24211309  0.59335551  1
  S  S122  1  0.89317051  0.20660068  0.31136766  1
  S  S123  1  0.80448962  0.58442255  0.40148016  1
  S  S124  1  0.76254051  0.88343998  0.50569236  1
  S  S125  1  0.70942276  0.85981432  0.69642287  1
  S  S126  1  0.76039969  0.56890169  0.58825088  1
  S  S127  1  0.79397931  0.89030170  0.31222551  1
  I  I128  1  0.27031209  0.94962735  0.96872631  1
  I  I129  1  0.26042181  0.59590322  0.99754921  1
  I  I130  1  0.76994010  0.05611811  0.02063226  1
  I  I131  1  0.76465308  0.42657958  0.99572549  1
  I  I132  1  0.06079772  0.23592764  0.01858943  1
  I  I133  1  0.94307291  0.73718720  0.97929705  1
  I  I134  1  0.41084014  0.26097100  0.00112179  1
  I  I135  1  0.57775081  0.76452074  0.99410289  1
  I  I136  1  0.00104695  0.99537694  0.81344991  1
  I  I137  1  0.04531890  0.97626044  0.12805760  1
  I  I138  1  0.05624290  0.39850459  0.84141384  1
  I  I139  1  0.00457240  0.50199684  0.15688597  1
  I  I140  1  0.59863741  0.05632327  0.84565439  1
  I  I141  1  0.49748797  0.00410227  0.15968085  1
  I  I142  1  0.49350979  0.49974741  0.84440651  1
  I  I143  1  0.53114021  0.53408576  0.15761553  1
  N  N144  1  0.22791861  0.17624753  0.85798817  1
  N  N145  1  0.26851688  0.16886490  0.13910486  1
  N  N146  1  0.16708815  0.76468905  0.85883632  1
  N  N147  1  0.17380557  0.72668687  0.14060383  1
  N  N148  1  0.82226082  0.28314450  0.14269963  1
  N  N149  1  0.81576135  0.24132410  0.86189001  1
  N  N150  1  0.70985112  0.81272770  0.14381316  1
  N  N151  1  0.75298550  0.82429567  0.86183431  1
