# generated using pymatgen
data_H12PbC10S(I2N)2
_symmetry_space_group_name_H-M   'P 1'
_cell_length_a   12.57485433
_cell_length_b   12.47362972
_cell_length_c   14.24491623
_cell_angle_alpha   88.39872226
_cell_angle_beta   87.96916487
_cell_angle_gamma   88.36245951
_symmetry_Int_Tables_number   1
_chemical_formula_structural   H12PbC10S(I2N)2
_chemical_formula_sum   'H48 Pb4 C40 S4 I16 N8'
_cell_volume   2231.24656789
_cell_formula_units_Z   4
loop_
 _symmetry_equiv_pos_site_id
 _symmetry_equiv_pos_as_xyz
  1  'x, y, z'
loop_
 _atom_site_type_symbol
 _atom_site_label
 _atom_site_symmetry_multiplicity
 _atom_site_fract_x
 _atom_site_fract_y
 _atom_site_fract_z
 _atom_site_occupancy
  H  H0  1  0.34572056  0.18117951  0.79295964  1
  H  H1  1  0.36156440  0.31535639  0.80071032  1
  H  H2  1  0.29036290  0.24659724  0.88316737  1
  H  H3  1  0.17969580  0.35806184  0.77759154  1
  H  H4  1  0.14868810  0.21907149  0.78538124  1
  H  H5  1  0.28021904  0.43088179  0.63338949  1
  H  H6  1  0.31052573  0.41509715  0.46102810  1
  H  H7  1  0.34968007  0.08042351  0.34515860  1
  H  H8  1  0.35426272  0.11846124  0.16008622  1
  H  H9  1  0.27636391  0.30027401  0.12213149  1
  H  H10  1  0.20212111  0.08946139  0.47972103  1
  H  H11  1  0.17614414  0.10438917  0.65257739  1
  H  H12  1  0.17399173  0.66500453  0.79949570  1
  H  H13  1  0.30405685  0.62719020  0.79803532  1
  H  H14  1  0.25523690  0.70643738  0.88249046  1
  H  H15  1  0.36226119  0.80736780  0.77071745  1
  H  H16  1  0.22762925  0.85554494  0.77814983  1
  H  H17  1  0.43198161  0.71490580  0.62869138  1
  H  H18  1  0.41349514  0.68469985  0.45858119  1
  H  H19  1  0.07825592  0.65703260  0.34671294  1
  H  H20  1  0.11789857  0.65568943  0.16176448  1
  H  H21  1  0.29924604  0.72425579  0.12142221  1
  H  H22  1  0.08575624  0.79795613  0.47986412  1
  H  H23  1  0.10452055  0.82540213  0.65078039  1
  H  H24  1  0.82201550  0.15243306  0.20469309  1
  H  H25  1  0.69147250  0.12887581  0.19875454  1
  H  H26  1  0.75295393  0.20457462  0.11591935  1
  H  H27  1  0.63988419  0.31259018  0.22296965  1
  H  H28  1  0.77560684  0.34983438  0.21450096  1
  H  H29  1  0.56986086  0.21570088  0.36862498  1
  H  H30  1  0.58656307  0.18767185  0.54094738  1
  H  H31  1  0.92336964  0.15821319  0.65521383  1
  H  H32  1  0.88392783  0.15293901  0.84006843  1
  H  H33  1  0.69891945  0.22041740  0.87802708  1
  H  H34  1  0.90961519  0.29686412  0.51757131  1
  H  H35  1  0.89298499  0.32199985  0.34527261  1
  H  H36  1  0.83458853  0.82188426  0.20330158  1
  H  H37  1  0.86349072  0.68812873  0.19858652  1
  H  H38  1  0.78798132  0.74720313  0.11785874  1
  H  H39  1  0.68516330  0.63885891  0.23036356  1
  H  H40  1  0.64241984  0.77660196  0.22522682  1
  H  H41  1  0.78118256  0.56622046  0.37094448  1
  H  H42  1  0.81467104  0.58520994  0.54038067  1
  H  H43  1  0.84659416  0.92315512  0.65061403  1
  H  H44  1  0.85145410  0.88659831  0.83612610  1
  H  H45  1  0.77991626  0.70630742  0.87921737  1
  H  H46  1  0.70239225  0.91557207  0.52326200  1
  H  H47  1  0.67347067  0.89708693  0.35318399  1
  Pb  Pb48  1  0.02664142  0.99568466  0.02083973  1
  Pb  Pb49  1  -0.00740950  0.49198950  0.98793917  1
  Pb  Pb50  1  0.51900905  0.98812653  0.98247736  1
  Pb  Pb51  1  0.49811451  0.49859984  0.00588700  1
  C  C52  1  0.20761376  0.27686788  0.75893767  1
  C  C53  1  0.22633612  0.26849530  0.65433674  1
  C  C54  1  0.26287771  0.35620259  0.59970208  1
  C  C55  1  0.27860296  0.34792230  0.50291035  1
  C  C56  1  0.25704513  0.25167440  0.45908548  1
  C  C57  1  0.27291979  0.24043321  0.35777720  1
  C  C58  1  0.31751910  0.15262728  0.31100239  1
  C  C59  1  0.32202395  0.17122227  0.21415528  1
  C  C60  1  0.22078615  0.16360895  0.51372549  1
  C  C61  1  0.20589527  0.17234536  0.61041658  1
  C  C62  1  0.28026567  0.78926673  0.75406462  1
  C  C63  1  0.26940256  0.77184152  0.65080301  1
  C  C64  1  0.35633025  0.73344104  0.59589135  1
  C  C65  1  0.34626084  0.71740824  0.50035859  1
  C  C66  1  0.24845907  0.74006947  0.45795499  1
  C  C67  1  0.23671618  0.72556456  0.35745054  1
  C  C68  1  0.15041944  0.68625440  0.31177582  1
  C  C69  1  0.16981964  0.68389909  0.21487293  1
  C  C70  1  0.16100454  0.77814830  0.51299326  1
  C  C71  1  0.17178038  0.79378176  0.60846935  1
  C  C72  1  0.72127275  0.28754432  0.24092218  1
  C  C73  1  0.73066364  0.26972504  0.34537613  1
  C  C74  1  0.64431547  0.23331549  0.40136964  1
  C  C75  1  0.65316718  0.21885905  0.49814529  1
  C  C76  1  0.74905550  0.24118446  0.54078472  1
  C  C77  1  0.76088956  0.22684874  0.64212608  1
  C  C78  1  0.84963982  0.18688151  0.68920022  1
  C  C79  1  0.83064391  0.18284557  0.78614724  1
  C  C80  1  0.83579223  0.27735309  0.48466897  1
  C  C81  1  0.82631505  0.29126470  0.38810388  1
  C  C82  1  0.70617081  0.72063190  0.24765114  1
  C  C83  1  0.72527033  0.73052962  0.35083858  1
  C  C84  1  0.76365560  0.64261505  0.40446134  1
  C  C85  1  0.78140547  0.65290651  0.49970742  1
  C  C86  1  0.76001729  0.75150722  0.54313973  1
  C  C87  1  0.77634316  0.76430482  0.64317324  1
  C  C88  1  0.81750492  0.85159216  0.68706373  1
  C  C89  1  0.82165725  0.83397168  0.78395339  1
  C  C90  1  0.72159868  0.83967454  0.48943313  1
  C  C91  1  0.70481589  0.82891465  0.39431501  1
  S  S92  1  0.23642495  0.34033514  0.27976854  1
  S  S93  1  0.33632331  0.75960796  0.27816654  1
  S  S94  1  0.65973017  0.25961224  0.72027557  1
  S  S95  1  0.74233274  0.66604068  0.72404033  1
  I  I96  1  0.27156404  0.05315233  0.99596700  1
  I  I97  1  0.24197006  0.45861389  0.01199062  1
  I  I98  1  0.77132337  -0.01362633  0.99508056  1
  I  I99  1  0.73842088  0.56562977  -0.00037609  1
  I  I100  1  0.95883428  0.24597011  0.01168263  1
  I  I101  1  1.01706879  0.74579175  0.99671384  1
  I  I102  1  0.54509105  0.24559507  0.99752106  1
  I  I103  1  0.42986304  0.74753609  0.99037633  1
  I  I104  1  0.05303480  0.99797506  0.79467591  1
  I  I105  1  0.96121130  0.98265802  0.24528887  1
  I  I106  1  0.02284737  0.53364185  0.76364724  1
  I  I107  1  0.95479363  0.49961184  0.21702074  1
  I  I108  1  0.49832425  0.01643881  0.76047268  1
  I  I109  1  0.54441003  0.99103878  0.21323778  1
  I  I110  1  0.45996789  0.49327449  0.77143517  1
  I  I111  1  0.48766021  0.49688419  0.22630106  1
  N  N112  1  0.30785958  0.25319900  0.81173979  1
  N  N113  1  0.28042801  0.26717731  0.18952684  1
  N  N114  1  0.25039581  0.69110792  0.81182357  1
  N  N115  1  0.26512525  0.72166071  0.18906417  1
  N  N116  1  0.74894554  0.18754930  0.18737437  1
  N  N117  1  0.73317135  0.22019081  0.81069084  1
  N  N118  1  0.80406307  0.74741375  0.18849210  1
  N  N119  1  0.78312231  0.73917843  0.81135690  1
