# generated using pymatgen
data_H12PbC10S(I2N)2
_symmetry_space_group_name_H-M   'P 1'
_cell_length_a   12.65774636
_cell_length_b   12.50642256
_cell_length_c   14.01011033
_cell_angle_alpha   89.01084852
_cell_angle_beta   88.56240710
_cell_angle_gamma   89.71368608
_symmetry_Int_Tables_number   1
_chemical_formula_structural   H12PbC10S(I2N)2
_chemical_formula_sum   'H48 Pb4 C40 S4 I16 N8'
_cell_volume   2216.79265744
_cell_formula_units_Z   4
loop_
 _symmetry_equiv_pos_site_id
 _symmetry_equiv_pos_as_xyz
  1  'x, y, z'
loop_
 _atom_site_type_symbol
 _atom_site_label
 _atom_site_symmetry_multiplicity
 _atom_site_fract_x
 _atom_site_fract_y
 _atom_site_fract_z
 _atom_site_occupancy
  H  H0  1  0.19916719  0.28800529  0.87581172  1
  H  H1  1  0.15030867  0.34499856  0.77826480  1
  H  H2  1  0.14197178  0.21126464  0.79620846  1
  H  H3  1  0.32846993  0.18436856  0.78081239  1
  H  H4  1  0.34759030  0.32580037  0.77209662  1
  H  H5  1  0.32466622  0.42120462  0.62072182  1
  H  H6  1  0.30476339  0.41260889  0.44528843  1
  H  H7  1  0.17023280  0.39775718  0.30582423  1
  H  H8  1  0.17859137  0.34213281  0.13857469  1
  H  H9  1  0.31871460  0.08082178  0.31089514  1
  H  H10  1  0.21170932  0.08156954  0.47442522  1
  H  H11  1  0.23682898  0.08918350  0.64892724  1
  H  H12  1  0.28284638  0.80304765  0.87374688  1
  H  H13  1  0.34752308  0.84751267  0.77629951  1
  H  H14  1  0.21652621  0.86543869  0.78882248  1
  H  H15  1  0.18247194  0.67438662  0.78444653  1
  H  H16  1  0.32135125  0.65072319  0.77434670  1
  H  H17  1  0.41617204  0.67527692  0.62190589  1
  H  H18  1  0.40669803  0.69360651  0.44548486  1
  H  H19  1  0.39179636  0.82423438  0.30190897  1
  H  H20  1  0.33544753  0.82209879  0.13640855  1
  H  H21  1  0.07721194  0.67946331  0.31332483  1
  H  H22  1  0.07882027  0.78728179  0.47379792  1
  H  H23  1  0.08788863  0.76526357  0.64992767  1
  H  H24  1  0.70901763  0.29484932  0.12368033  1
  H  H25  1  0.65599168  0.34978777  0.22097412  1
  H  H26  1  0.78673302  0.35950182  0.19908612  1
  H  H27  1  0.81583611  0.17093293  0.21931365  1
  H  H28  1  0.67708614  0.14982347  0.22944778  1
  H  H29  1  0.58199147  0.17548192  0.38026532  1
  H  H30  1  0.58952333  0.19678548  0.55578897  1
  H  H31  1  0.60224074  0.32624752  0.69906410  1
  H  H32  1  0.65636084  0.31241531  0.86545098  1
  H  H33  1  0.91980605  0.18583973  0.68661342  1
  H  H34  1  0.91694177  0.28956912  0.52576337  1
  H  H35  1  0.90970120  0.26458638  0.35073918  1
  H  H36  1  0.70517469  0.71192772  0.12339728  1
  H  H37  1  0.65324166  0.65395442  0.22132899  1
  H  H38  1  0.64072510  0.78697504  0.20318969  1
  H  H39  1  0.82711938  0.81765860  0.21579352  1
  H  H40  1  0.84869497  0.67646643  0.22505126  1
  H  H41  1  0.82305685  0.58129774  0.37646497  1
  H  H42  1  0.80534481  0.59130979  0.55270325  1
  H  H43  1  0.67638226  0.60536230  0.69791300  1
  H  H44  1  0.68345456  0.66000955  0.86422929  1
  H  H45  1  0.81542225  0.92528203  0.68642887  1
  H  H46  1  0.71108927  0.92276791  0.52669598  1
  H  H47  1  0.73381657  0.91377648  0.35086042  1
  Pb  Pb48  1  0.99926573  -0.00106162  0.01757756  1
  Pb  Pb49  1  0.98598868  0.50288400  0.98522815  1
  Pb  Pb50  1  0.50596600  0.00496869  0.98642490  1
  Pb  Pb51  1  0.48187325  0.50389865  0.01330543  1
  C  C52  1  0.29589348  0.25980460  0.75261569  1
  C  C53  1  0.28264526  0.25552810  0.64635845  1
  C  C54  1  0.29976001  0.34679094  0.58860742  1
  C  C55  1  0.28766224  0.34228545  0.49015710  1
  C  C56  1  0.25738403  0.24634395  0.44808616  1
  C  C57  1  0.24801332  0.24065345  0.34401754  1
  C  C58  1  0.20619778  0.32208402  0.28536657  1
  C  C59  1  0.28010163  0.15454183  0.28818190  1
  C  C60  1  0.23844924  0.15547594  0.50617046  1
  C  C61  1  0.25186492  0.16002083  0.60426179  1
  C  C62  1  0.25723244  0.70532114  0.75389233  1
  C  C63  1  0.25250206  0.71868258  0.64729471  1
  C  C64  1  0.34240469  0.70033101  0.58932133  1
  C  C65  1  0.33720899  0.71090893  0.49040914  1
  C  C66  1  0.24165113  0.74022063  0.44805066  1
  C  C67  1  0.23568013  0.74778399  0.34360454  1
  C  C68  1  0.31675254  0.78859599  0.28332448  1
  C  C69  1  0.15083074  0.71661026  0.28908026  1
  C  C70  1  0.15224148  0.76107418  0.50624028  1
  C  C71  1  0.15773577  0.74983787  0.60498450  1
  C  C72  1  0.74120324  0.20395499  0.24789222  1
  C  C73  1  0.74512153  0.21949299  0.35390121  1
  C  C74  1  0.65504410  0.20175390  0.41217792  1
  C  C75  1  0.65911900  0.21411219  0.51070238  1
  C  C76  1  0.75378807  0.24479043  0.55252893  1
  C  C77  1  0.75958550  0.25347126  0.65679622  1
  C  C78  1  0.67848523  0.29208936  0.71750113  1
  C  C79  1  0.84590580  0.22239013  0.71084660  1
  C  C80  1  0.84370299  0.26371391  0.49397790  1
  C  C81  1  0.83939424  0.25054948  0.39572544  1
  C  C82  1  0.79516475  0.74215936  0.24519676  1
  C  C83  1  0.77962369  0.74688012  0.35186954  1
  C  C84  1  0.79785256  0.65602782  0.40938298  1
  C  C85  1  0.78736940  0.66145142  0.50843116  1
  C  C86  1  0.75768992  0.75797660  0.55162968  1
  C  C87  1  0.74922748  0.76416461  0.65616714  1
  C  C88  1  0.70966185  0.68207233  0.71657267  1
  C  C89  1  0.77856746  0.85102178  0.71077563  1
  C  C90  1  0.73724929  0.84834347  0.49390279  1
  C  C91  1  0.74886299  0.84290261  0.39503867  1
  S  S92  1  0.25874870  0.17558003  0.17123911  1
  S  S93  1  0.17235963  0.73812183  0.17122136  1
  S  S94  1  0.82491697  0.23905923  0.82867837  1
  S  S95  1  0.75712436  0.82970264  0.82847385  1
  I  I96  1  0.25773881  0.96599245  1.00174806  1
  I  I97  1  0.23760718  0.49587267  0.99946366  1
  I  I98  1  0.75544453  0.03431980  0.01647905  1
  I  I99  1  0.73725244  0.50131447  0.99355832  1
  I  I100  1  0.02970132  0.24745559  0.00977502  1
  I  I101  1  0.97834399  0.75000423  0.97530327  1
  I  I102  1  0.51447073  0.25623741  0.01052328  1
  I  I103  1  0.51811290  0.75397815  -0.00118858  1
  I  I104  1  0.04869993  0.01349355  0.77280027  1
  I  I105  1  0.00095357  0.99538360  0.23865630  1
  I  I106  1  0.00933765  0.49150402  0.75801435  1
  I  I107  1  0.96365239  0.47886027  0.22140736  1
  I  I108  1  0.49474099  0.99411230  0.75923345  1
  I  I109  1  0.52224128  0.97748036  0.22400120  1
  I  I110  1  0.48958149  0.50354630  0.78371646  1
  I  I111  1  0.51345674  0.50197188  0.24767468  1
  N  N112  1  0.19106797  0.27719155  0.80334642  1
  N  N113  1  0.20857230  0.29621479  0.19351283  1
  N  N114  1  0.27739906  0.81073872  0.80038316  1
  N  N115  1  0.29190090  0.78698034  0.19149633  1
  N  N116  1  0.72230982  0.30823754  0.19498430  1
  N  N117  1  0.70468614  0.28860826  0.80922490  1
  N  N118  1  0.69261111  0.72259666  0.19574572  1
  N  N119  1  0.71006400  0.70833640  0.80843374  1
