# generated using pymatgen
data_H16PbC12S(I2N)2
_symmetry_space_group_name_H-M   'P 1'
_cell_length_a   12.61187823
_cell_length_b   12.40269918
_cell_length_c   16.05953845
_cell_angle_alpha   90.56952696
_cell_angle_beta   90.50095650
_cell_angle_gamma   89.00282028
_symmetry_Int_Tables_number   1
_chemical_formula_structural   H16PbC12S(I2N)2
_chemical_formula_sum   'H64 Pb4 C48 S4 I16 N8'
_cell_volume   2511.45759096
_cell_formula_units_Z   4
loop_
 _symmetry_equiv_pos_site_id
 _symmetry_equiv_pos_as_xyz
  1  'x, y, z'
loop_
 _atom_site_type_symbol
 _atom_site_label
 _atom_site_symmetry_multiplicity
 _atom_site_fract_x
 _atom_site_fract_y
 _atom_site_fract_z
 _atom_site_occupancy
  H  H0  1  0.14084638  0.33207996  0.80419304  1
  H  H1  1  0.18447339  0.27774277  0.89214531  1
  H  H2  1  0.13950858  0.19571589  0.81628657  1
  H  H3  1  0.32725063  0.18052103  0.82180861  1
  H  H4  1  0.33804335  0.32388670  0.81943904  1
  H  H5  1  0.25343114  0.08232822  0.69503842  1
  H  H6  1  0.25210681  0.07398370  0.54110617  1
  H  H7  1  0.38217035  0.07164905  0.42228157  1
  H  H8  1  0.21134645  0.41649161  0.23332148  1
  H  H9  1  0.32266724  0.35900991  0.18105414  1
  H  H10  1  0.10410089  0.27359784  0.18586767  1
  H  H11  1  0.20719330  0.20016145  0.14831759  1
  H  H12  1  0.17357565  0.31770516  0.10493569  1
  H  H13  1  0.22558920  0.38662732  0.39447237  1
  H  H14  1  0.33639938  0.40929063  0.53285977  1
  H  H15  1  0.33395187  0.41835827  0.68682716  1
  H  H16  1  0.34265871  0.85020947  0.81396237  1
  H  H17  1  0.27530090  0.81132115  0.89737345  1
  H  H18  1  0.21007619  0.87137553  0.81859945  1
  H  H19  1  0.17911731  0.67772032  0.82191320  1
  H  H20  1  0.31866410  0.65393139  0.81766492  1
  H  H21  1  0.08181106  0.75373573  0.69737761  1
  H  H22  1  0.07142246  0.75268730  0.54366438  1
  H  H23  1  0.06938533  0.62198191  0.42151999  1
  H  H24  1  0.41317020  0.77608070  0.23721627  1
  H  H25  1  0.35379635  0.66890913  0.18101959  1
  H  H26  1  0.26023609  0.89153914  0.19401907  1
  H  H27  1  0.21320955  0.79019601  0.13573919  1
  H  H28  1  0.33153405  0.83963905  0.11530513  1
  H  H29  1  0.37931602  0.76938117  0.39541269  1
  H  H30  1  0.40236080  0.66096157  0.53157359  1
  H  H31  1  0.41294993  0.66435436  0.68565334  1
  H  H32  1  0.66920044  0.35527745  0.19612160  1
  H  H33  1  0.71948816  0.30953620  0.10719895  1
  H  H34  1  0.80187213  0.35935155  0.18084200  1
  H  H35  1  0.82108026  0.16783692  0.17893133  1
  H  H36  1  0.68062130  0.15392135  0.18160304  1
  H  H37  1  0.91635296  0.24627709  0.30440855  1
  H  H38  1  0.92450887  0.25028997  0.45849412  1
  H  H39  1  0.93201598  0.12647104  0.57721161  1
  H  H40  1  0.58416402  0.27574009  0.76818796  1
  H  H41  1  0.64427196  0.16243395  0.81805939  1
  H  H42  1  0.72359302  0.38668640  0.81608843  1
  H  H43  1  0.79528568  0.28315696  0.85533477  1
  H  H44  1  0.67790439  0.31661426  0.89634386  1
  H  H45  1  0.61378425  0.26627439  0.60628488  1
  H  H46  1  0.59559276  0.16247795  0.46774114  1
  H  H47  1  0.58695778  0.16221978  0.31359339  1
  H  H48  1  0.65322865  0.65893022  0.19100414  1
  H  H49  1  0.69439830  0.71464387  0.10349917  1
  H  H50  1  0.63925074  0.79413472  0.17751576  1
  H  H51  1  0.82623192  0.82030400  0.17742905  1
  H  H52  1  0.84899113  0.67796883  0.18282049  1
  H  H53  1  0.75212994  0.92091192  0.30260494  1
  H  H54  1  0.75013249  0.93089092  0.45631709  1
  H  H55  1  0.87932902  0.93053032  0.57780976  1
  H  H56  1  0.71813637  0.58723194  0.76265908  1
  H  H57  1  0.82758616  0.64221667  0.81764373  1
  H  H58  1  0.61198313  0.74569389  0.80797859  1
  H  H59  1  0.71511850  0.79215773  0.86287014  1
  H  H60  1  0.66459987  0.67339784  0.88689989  1
  H  H61  1  0.72761476  0.61920104  0.60460025  1
  H  H62  1  0.83737897  0.59348131  0.46832563  1
  H  H63  1  0.83691926  0.58310796  0.31427834  1
  Pb  Pb64  1  1.00334144  0.99691681  0.00217784  1
  Pb  Pb65  1  0.99354391  0.50905025  0.99412364  1
  Pb  Pb66  1  0.51006765  -0.00141665  0.99411345  1
  Pb  Pb67  1  0.48604858  0.49453550  0.00825292  1
  C  C68  1  0.29357400  0.25493381  0.79507517  1
  C  C69  1  0.29392662  0.25081520  0.70148928  1
  C  C70  1  0.27178866  0.15405545  0.65953101  1
  C  C71  1  0.27174653  0.14918763  0.57302318  1
  C  C72  1  0.29574623  0.24045767  0.52592315  1
  C  C73  1  0.30192114  0.23169549  0.43461348  1
  C  C74  1  0.34619201  0.14292325  0.39422825  1
  C  C75  1  0.28049030  0.28006798  0.29507566  1
  C  C76  1  0.25262254  0.34022131  0.21811877  1
  C  C77  1  0.26437171  0.31068218  0.37661590  1
  C  C78  1  0.31665575  0.33771415  0.56812955  1
  C  C79  1  0.31549046  0.34278674  0.65493718  1
  C  C80  1  0.25348992  0.70651561  0.79575471  1
  C  C81  1  0.24826183  0.70914851  0.70218180  1
  C  C82  1  0.15242061  0.73368879  0.66120469  1
  C  C83  1  0.14636814  0.73234180  0.57463356  1
  C  C84  1  0.23574922  0.70547984  0.52641045  1
  C  C85  1  0.22689794  0.69781307  0.43498141  1
  C  C86  1  0.14005874  0.65490931  0.39400802  1
  C  C87  1  0.27528887  0.71570359  0.29544413  1
  C  C88  1  0.33696522  0.74050568  0.21985022  1
  C  C89  1  0.30472998  0.73235112  0.37725966  1
  C  C90  1  0.33224282  0.68309971  0.56769334  1
  C  C91  1  0.33821669  0.68495622  0.65442929  1
  C  C92  1  0.74727004  0.20150402  0.20511439  1
  C  C93  1  0.75122685  0.20368002  0.29861492  1
  C  C94  1  0.84599386  0.22805470  0.34028081  1
  C  C95  1  0.85074508  0.22943829  0.42676445  1
  C  C96  1  0.76129640  0.20479902  0.47417305  1
  C  C97  1  0.77011096  0.19822106  0.56539793  1
  C  C98  1  0.85961250  0.15754558  0.60549866  1
  C  C99  1  0.72061872  0.21246611  0.70497871  1
  C  C100  1  0.66028290  0.23543744  0.78234067  1
  C  C101  1  0.69014008  0.23011866  0.62368582  1
  C  C102  1  0.66579787  0.18245577  0.43220768  1
  C  C103  1  0.66095303  0.18207516  0.34541823  1
  C  C104  1  0.79796356  0.74508657  0.20427958  1
  C  C105  1  0.79472708  0.75116424  0.29780838  1
  C  C106  1  0.77074964  0.84886065  0.33870571  1
  C  C107  1  0.77029905  0.85468378  0.42529838  1
  C  C108  1  0.79500312  0.76334684  0.47345485  1
  C  C109  1  0.80153416  0.77225445  0.56482785  1
  C  C110  1  0.84531755  0.85982467  0.60567620  1
  C  C111  1  0.78272040  0.72439600  0.70430879  1
  C  C112  1  0.75698484  0.66275474  0.78004918  1
  C  C113  1  0.76581096  0.69419340  0.62259286  1
  C  C114  1  0.81691437  0.66509729  0.43219486  1
  C  C115  1  0.81665462  0.65922487  0.34546192  1
  S  S116  1  0.34415344  0.15591330  0.28852915  1
  S  S117  1  0.15309826  0.65564828  0.28825951  1
  S  S118  1  0.84606512  0.15523526  0.71100442  1
  S  S119  1  0.84452188  0.84715655  0.71133565  1
  I  I120  1  0.26711638  0.05742847  0.02283095  1
  I  I121  1  0.24274483  0.44214667  0.99577480  1
  I  I122  1  0.76361128  0.92407096  0.97938477  1
  I  I123  1  0.74121847  0.54022041  0.99904982  1
  I  I124  1  0.95030662  0.25089427  0.97845969  1
  I  I125  1  0.08910340  0.74843780  0.01160767  1
  I  I126  1  0.56087789  0.24730888  0.00806754  1
  I  I127  1  0.45675755  0.74645240  0.99812120  1
  I  I128  1  0.07164361  0.00649670  0.80229862  1
  I  I129  1  0.02030700  0.01648293  0.19560814  1
  I  I130  1  0.00502437  0.49361304  0.79809523  1
  I  I131  1  0.96857771  0.45612433  0.19570312  1
  I  I132  1  0.50159054  0.96549887  0.79446963  1
  I  I133  1  0.53741350  0.96322871  0.19299144  1
  I  I134  1  0.50669616  0.49887652  0.80899956  1
  I  I135  1  0.52187387  0.49792235  0.21010270  1
  N  N136  1  0.18255933  0.26581661  0.82829400  1
  N  N137  1  0.17959216  0.27768563  0.16160877  1
  N  N138  1  0.27164283  0.81622889  0.83325747  1
  N  N139  1  0.28147009  0.82079690  0.16384047  1
  N  N140  1  0.73383498  0.31326844  0.17068693  1
  N  N141  1  0.71920460  0.31039663  0.84035364  1
  N  N142  1  0.68945006  0.72682078  0.16716448  1
  N  N143  1  0.68197506  0.72270117  0.83701708  1
