# generated using pymatgen
data_H12PbC10S(I2N)2
_symmetry_space_group_name_H-M   'P 1'
_cell_length_a   12.70252597
_cell_length_b   12.61782250
_cell_length_c   13.98221631
_cell_angle_alpha   90.96025053
_cell_angle_beta   90.84627368
_cell_angle_gamma   88.84868296
_symmetry_Int_Tables_number   1
_chemical_formula_structural   H12PbC10S(I2N)2
_chemical_formula_sum   'H48 Pb4 C40 S4 I16 N8'
_cell_volume   2240.04411194
_cell_formula_units_Z   4
loop_
 _symmetry_equiv_pos_site_id
 _symmetry_equiv_pos_as_xyz
  1  'x, y, z'
loop_
 _atom_site_type_symbol
 _atom_site_label
 _atom_site_symmetry_multiplicity
 _atom_site_fract_x
 _atom_site_fract_y
 _atom_site_fract_z
 _atom_site_occupancy
  H  H0  1  0.30404095  0.30882796  0.87664238  1
  H  H1  1  0.25069367  0.19450918  0.84296004  1
  H  H2  1  0.36230860  0.22902055  0.79336888  1
  H  H3  1  0.15394102  0.34397294  0.77404669  1
  H  H4  1  0.27438376  0.39524606  0.73450652  1
  H  H5  1  0.28463101  0.38036942  0.55261064  1
  H  H6  1  0.20210723  0.41780529  0.38180344  1
  H  H7  1  0.23265654  0.43384302  0.20577642  1
  H  H8  1  0.28344119  0.28429453  0.11790053  1
  H  H9  1  0.31194831  0.11397028  0.17761682  1
  H  H10  1  0.28889200  0.08447623  0.35254359  1
  H  H11  1  0.15026735  0.07366846  0.47392066  1
  H  H12  1  0.30418153  0.70846376  0.87886933  1
  H  H13  1  0.18800126  0.74870988  0.83188444  1
  H  H14  1  0.24390765  0.63509422  0.79360018  1
  H  H15  1  0.33984890  0.84838698  0.77525793  1
  H  H16  1  0.39608801  0.72538462  0.73522598  1
  H  H17  1  0.38401009  0.71712870  0.55004178  1
  H  H18  1  0.41723498  0.79732307  0.38472630  1
  H  H19  1  0.43557437  0.77222870  0.20703723  1
  H  H20  1  0.29158559  0.72411478  0.11598065  1
  H  H21  1  0.12067711  0.69402777  0.17310137  1
  H  H22  1  0.08949245  0.71161717  0.34830366  1
  H  H23  1  0.07047947  0.84397103  0.47601672  1
  H  H24  1  0.68546770  0.19196411  0.12328454  1
  H  H25  1  0.80102048  0.23977534  0.15897523  1
  H  H26  1  0.75707386  0.12874617  0.20671582  1
  H  H27  1  0.65402332  0.34377041  0.22556796  1
  H  H28  1  0.59923622  0.22493514  0.26650391  1
  H  H29  1  0.61748025  0.21661392  0.45078438  1
  H  H30  1  0.58620602  0.30105479  0.62093183  1
  H  H31  1  0.57226232  0.26916224  0.79658060  1
  H  H32  1  0.71998717  0.21072014  0.88176158  1
  H  H33  1  0.88862982  0.18221092  0.82010504  1
  H  H34  1  0.91642871  0.20811976  0.64550265  1
  H  H35  1  0.92722611  0.34475765  0.52134077  1
  H  H36  1  0.80286214  0.69413390  0.12352359  1
  H  H37  1  0.75417071  0.80840194  0.16884434  1
  H  H38  1  0.86793547  0.76153975  0.21072208  1
  H  H39  1  0.66091089  0.65241478  0.22425017  1
  H  H40  1  0.78389838  0.60022705  0.26558841  1
  H  H41  1  0.79025271  0.61423809  0.45248234  1
  H  H42  1  0.70315731  0.58267302  0.61921527  1
  H  H43  1  0.73559187  0.56637009  0.79623574  1
  H  H44  1  0.79144522  0.71254623  0.88346202  1
  H  H45  1  0.81933354  0.88232254  0.82359309  1
  H  H46  1  0.79181031  0.91213777  0.64845989  1
  H  H47  1  0.64951715  0.92496090  0.52274554  1
  Pb  Pb48  1  0.01000415  0.99942380  0.02989646  1
  Pb  Pb49  1  -0.00236587  0.49272339  0.98908750  1
  Pb  Pb50  1  0.50353226  0.99989232  0.98007696  1
  Pb  Pb51  1  0.50181485  0.50164371  0.99801204  1
  C  C52  1  0.23066087  0.32182862  0.74319029  1
  C  C53  1  0.22001348  0.26608628  0.64892373  1
  C  C54  1  0.24669404  0.30444210  0.56104495  1
  C  C55  1  0.22318135  0.23227354  0.48400386  1
  C  C56  1  0.24206312  0.24881343  0.38251476  1
  C  C57  1  0.22840076  0.34878972  0.34033681  1
  C  C58  1  0.24402166  0.35983327  0.24345513  1
  C  C59  1  0.28737587  0.17697139  0.22686460  1
  C  C60  1  0.27306456  0.16262834  0.32323011  1
  C  C61  1  0.17858352  0.14037290  0.51653002  1
  C  C62  1  0.32171609  0.77052164  0.74303457  1
  C  C63  1  0.26668169  0.77956186  0.64859604  1
  C  C64  1  0.30624688  0.75340406  0.55994701  1
  C  C65  1  0.23282737  0.77517101  0.48387885  1
  C  C66  1  0.25065577  0.75810342  0.38181373  1
  C  C67  1  0.34990733  0.77304518  0.34120820  1
  C  C68  1  0.36228257  0.75997090  0.24388950  1
  C  C69  1  0.18244719  0.71716982  0.22359208  1
  C  C70  1  0.16685927  0.72850341  0.32057424  1
  C  C71  1  0.13860775  0.81733902  0.51783703  1
  C  C72  1  0.67348897  0.26641141  0.25731961  1
  C  C73  1  0.73037505  0.27679675  0.35100214  1
  C  C74  1  0.69375436  0.25228435  0.44005992  1
  C  C75  1  0.76788941  0.27512642  0.51535172  1
  C  C76  1  0.75325174  0.25718224  0.61740376  1
  C  C77  1  0.65503202  0.27306145  0.66104815  1
  C  C78  1  0.64498008  0.25633101  0.75789666  1
  C  C79  1  0.82585740  0.20931647  0.77212088  1
  C  C80  1  0.83918365  0.22445068  0.67571644  1
  C  C81  1  0.85939374  0.31734430  0.48028295  1
  C  C82  1  0.73682243  0.67364902  0.25769660  1
  C  C83  1  0.72395615  0.72829712  0.35226929  1
  C  C84  1  0.75104051  0.69077727  0.44140444  1
  C  C85  1  0.72569594  0.76490209  0.51662320  1
  C  C86  1  0.74456629  0.74944280  0.61878324  1
  C  C87  1  0.73008087  0.65058492  0.66110738  1
  C  C88  1  0.74692165  0.63952126  0.75816346  1
  C  C89  1  0.79269666  0.82018760  0.77459341  1
  C  C90  1  0.77657216  0.83475117  0.67799837  1
  C  C91  1  0.67921492  0.85704116  0.48176397  1
  S  S92  1  0.16354175  0.14279486  0.63701480  1
  S  S93  1  0.14047722  0.83292020  0.63857757  1
  S  S94  1  0.85436177  0.33070059  0.35959819  1
  S  S95  1  0.66476195  0.85255048  0.36097903  1
  I  I96  1  0.25613840  0.04982097  0.98762767  1
  I  I97  1  0.24920616  0.46969993  0.99103338  1
  I  I98  1  0.75510949  -0.01060816  0.99879293  1
  I  I99  1  0.74705354  0.53991592  0.00789776  1
  I  I100  1  0.95138078  0.24963708  0.02817334  1
  I  I101  1  1.01182438  0.74692412  0.99122554  1
  I  I102  1  0.52581391  0.25191664  0.00608491  1
  I  I103  1  0.45334219  0.75110600  0.99049942  1
  I  I104  1  0.01244235  1.00004236  0.80821333  1
  I  I105  1  0.95740670  0.96895326  0.26013600  1
  I  I106  1  0.00270084  0.51216657  0.75956543  1
  I  I107  1  0.99390582  0.51756032  0.21892535  1
  I  I108  1  0.48338791  0.03462070  0.75055760  1
  I  I109  1  0.51417105  0.01037829  0.20723467  1
  I  I110  1  0.47370071  0.50015620  0.76086001  1
  I  I111  1  0.48642229  0.50745566  0.22316079  1
  N  N112  1  0.29076288  0.25909431  0.81761998  1
  N  N113  1  0.27209480  0.27426898  0.18972382  1
  N  N114  1  0.25904926  0.71185765  0.81557428  1
  N  N115  1  0.27878746  0.73373506  0.18805169  1
  N  N116  1  0.73387880  0.20300142  0.18320369  1
  N  N117  1  0.72972678  0.22542595  0.81046686  1
  N  N118  1  0.79405267  0.73911371  0.18629718  1
  N  N119  1  0.77681149  0.72388252  0.81184178  1
