# generated using pymatgen
data_H18PbC16(I2N)2
_symmetry_space_group_name_H-M   'P 1'
_cell_length_a   12.29226313
_cell_length_b   12.04672460
_cell_length_c   17.36697306
_cell_angle_alpha   89.21179376
_cell_angle_beta   89.34015832
_cell_angle_gamma   88.76332178
_symmetry_Int_Tables_number   1
_chemical_formula_structural   H18PbC16(I2N)2
_chemical_formula_sum   'H72 Pb4 C64 I16 N8'
_cell_volume   2570.72334472
_cell_formula_units_Z   4
loop_
 _symmetry_equiv_pos_site_id
 _symmetry_equiv_pos_as_xyz
  1  'x, y, z'
loop_
 _atom_site_type_symbol
 _atom_site_label
 _atom_site_symmetry_multiplicity
 _atom_site_fract_x
 _atom_site_fract_y
 _atom_site_fract_z
 _atom_site_occupancy
  H  H0  1  0.30227971  0.35950456  0.82571631  1
  H  H1  1  0.32524898  0.22348128  0.83519295  1
  H  H2  1  0.23714287  0.28597301  0.89462615  1
  H  H3  1  0.10862235  0.32401165  0.80103092  1
  H  H4  1  0.14226782  0.17935284  0.80156707  1
  H  H5  1  0.20183652  0.45011663  0.69623316  1
  H  H6  1  0.23905803  0.46140541  0.55807418  1
  H  H7  1  0.23706348  -0.00222694  0.56845123  1
  H  H8  1  0.27163969  0.00083292  0.42762459  1
  H  H9  1  0.29854633  0.10147621  0.30847606  1
  H  H10  1  0.36532375  0.34449075  0.18966031  1
  H  H11  1  0.35755467  0.19740857  0.19330411  1
  H  H12  1  0.16343606  0.21516459  0.17330886  1
  H  H13  1  0.23142524  0.28333518  0.10521133  1
  H  H14  1  0.16540403  0.35349754  0.17510310  1
  H  H15  1  0.29804476  0.45908036  0.30233030  1
  H  H16  1  0.26866094  0.46409017  0.44140908  1
  H  H17  1  0.20176333  0.09278100  0.68725476  1
  H  H18  1  0.35661491  0.68267825  0.82837134  1
  H  H19  1  0.22163356  0.66557851  0.83636450  1
  H  H20  1  0.28510249  0.74943979  0.89714526  1
  H  H21  1  0.32157014  0.88455193  0.80403145  1
  H  H22  1  0.18050199  0.85436227  0.80371322  1
  H  H23  1  0.44657663  0.79843264  0.69812564  1
  H  H24  1  0.45841715  0.76361581  0.55995466  1
  H  H25  1  0.00442934  0.76287892  0.57144265  1
  H  H26  1  0.00785649  0.73038277  0.43072189  1
  H  H27  1  0.10644332  0.70303047  0.31190938  1
  H  H28  1  0.34432221  0.62910454  0.19467286  1
  H  H29  1  0.20012339  0.64337492  0.19796364  1
  H  H30  1  0.21609965  0.83916954  0.17252276  1
  H  H31  1  0.28624189  0.76716337  0.10709465  1
  H  H32  1  0.35183026  0.83329544  0.17643494  1
  H  H33  1  0.45674328  0.70206074  0.30500319  1
  H  H34  1  0.46152062  0.73252049  0.44362438  1
  H  H35  1  0.09689008  0.79389267  0.69019857  1
  H  H36  1  0.65264539  0.16589186  0.18181056  1
  H  H37  1  0.78774548  0.14724224  0.17937306  1
  H  H38  1  0.72632881  0.21620653  0.10843123  1
  H  H39  1  0.67679005  0.36930249  0.18781275  1
  H  H40  1  0.81958020  0.34338412  0.19251114  1
  H  H41  1  0.55370361  0.29854541  0.30074386  1
  H  H42  1  0.54268259  0.26868809  0.43992077  1
  H  H43  1  0.99695825  0.26970555  0.42932313  1
  H  H44  1  0.99467649  0.23416979  0.57043493  1
  H  H45  1  0.89754725  0.20028368  0.68848563  1
  H  H46  1  0.66473793  0.11798357  0.80458054  1
  H  H47  1  0.80765157  0.13616339  0.80200889  1
  H  H48  1  0.77829763  0.32941582  0.83044205  1
  H  H49  1  0.71269301  0.25040540  0.89335762  1
  H  H50  1  0.64392623  0.32218808  0.82394289  1
  H  H51  1  0.54748803  0.19746636  0.69555870  1
  H  H52  1  0.54105189  0.23494527  0.55678243  1
  H  H53  1  0.90362535  0.29702531  0.31001149  1
  H  H54  1  0.83537246  0.64846259  0.18320854  1
  H  H55  1  0.84430764  0.78691441  0.17947371  1
  H  H56  1  0.78180514  0.72130275  0.10983082  1
  H  H57  1  0.63422749  0.66830664  0.19159365  1
  H  H58  1  0.65072826  0.81462564  0.19466404  1
  H  H59  1  0.70007257  0.54658655  0.30448137  1
  H  H60  1  0.73223405  0.53565640  0.44283456  1
  H  H61  1  0.73127032  0.99945279  0.42944371  1
  H  H62  1  0.76559657  0.99670173  0.56978563  1
  H  H63  1  0.79583860  0.89680883  0.68872271  1
  H  H64  1  0.86889621  0.65260481  0.80711237  1
  H  H65  1  0.86033044  0.79948465  0.80269796  1
  H  H66  1  0.66546621  0.79095668  0.82664099  1
  H  H67  1  0.73663677  0.72175622  0.89391715  1
  H  H68  1  0.66972611  0.65193058  0.82683338  1
  H  H69  1  0.80161589  0.53923824  0.69660838  1
  H  H70  1  0.76783076  0.53356481  0.55829590  1
  H  H71  1  0.70285512  0.90380443  0.31070653  1
  Pb  Pb72  1  0.00290949  0.99469913  0.99374313  1
  Pb  Pb73  1  0.01544174  0.51236203  0.00233360  1
  Pb  Pb74  1  0.51074940  -0.00329437  0.00192282  1
  Pb  Pb75  1  0.50902870  0.48585773  0.99432813  1
  C  C76  1  0.17153759  0.26202033  0.78543434  1
  C  C77  1  0.20104008  0.26973732  0.70155002  1
  C  C78  1  0.21223162  0.37369894  0.66363469  1
  C  C79  1  0.23290789  0.37959731  0.58519536  1
  C  C80  1  0.24410809  0.28250595  0.54043925  1
  C  C81  1  0.23417953  0.17738812  0.57907649  1
  C  C82  1  0.24478277  0.07627515  0.53702074  1
  C  C83  1  0.26359417  0.07802807  0.45956010  1
  C  C84  1  0.27217290  0.18107238  0.41804520  1
  C  C85  1  0.28912094  0.18105347  0.33750636  1
  C  C86  1  0.29622896  0.27911507  0.29525331  1
  C  C87  1  0.31568169  0.27504507  0.20993459  1
  C  C88  1  0.28911533  0.38126812  0.33442417  1
  C  C89  1  0.27318487  0.38361234  0.41347051  1
  C  C90  1  0.26318150  0.28444132  0.45760264  1
  C  C91  1  0.21235535  0.17356120  0.65908918  1
  C  C92  1  0.26202456  0.82241261  0.78827184  1
  C  C93  1  0.27011986  0.79596525  0.70414621  1
  C  C94  1  0.37207615  0.78724929  0.66578389  1
  C  C95  1  0.37828198  0.76810819  0.58738485  1
  C  C96  1  0.28343918  0.75647545  0.54289758  1
  C  C97  1  0.18034517  0.76530896  0.58177540  1
  C  C98  1  0.08143541  0.75545929  0.53990063  1
  C  C99  1  0.08328499  0.73779030  0.46259802  1
  C  C100  1  0.18425726  0.72922339  0.42098749  1
  C  C101  1  0.18420530  0.71194738  0.34077319  1
  C  C102  1  0.28025600  0.70393825  0.29851952  1
  C  C103  1  0.27622852  0.68286109  0.21379874  1
  C  C104  1  0.38041303  0.71141518  0.33720866  1
  C  C105  1  0.38266246  0.72798029  0.41594111  1
  C  C106  1  0.28548180  0.73806166  0.46022629  1
  C  C107  1  0.17623209  0.78516359  0.66174515  1
  C  C108  1  0.73984535  0.31159148  0.20977335  1
  C  C109  1  0.73068850  0.29615279  0.29539180  1
  C  C110  1  0.62861728  0.28939172  0.33358482  1
  C  C111  1  0.62281040  0.27319708  0.41266070  1
  C  C112  1  0.71800894  0.26265128  0.45770827  1
  C  C113  1  0.82092730  0.27177995  0.41903197  1
  C  C114  1  0.92027795  0.26216351  0.46100094  1
  C  C115  1  0.91907183  0.24285533  0.53842392  1
  C  C116  1  0.81833022  0.23274381  0.57973129  1
  C  C117  1  0.81931734  0.21130420  0.65979719  1
  C  C118  1  0.72368315  0.20038425  0.70187312  1
  C  C119  1  0.72906336  0.17474024  0.78627773  1
  C  C120  1  0.62313447  0.20936154  0.66325267  1
  C  C121  1  0.62001351  0.22995137  0.58466179  1
  C  C122  1  0.71670087  0.24266236  0.54052187  1
  C  C123  1  0.82456475  0.28880905  0.33855221  1
  C  C124  1  0.68655983  0.73411076  0.21226583  1
  C  C125  1  0.70241424  0.72683433  0.29771045  1
  C  C126  1  0.70973621  0.62300389  0.33654727  1
  C  C127  1  0.72736188  0.61734882  0.41515748  1
  C  C128  1  0.73858754  0.71460898  0.45912055  1
  C  C129  1  0.72911292  0.81965608  0.41986673  1
  C  C130  1  0.73885351  0.92094968  0.46126090  1
  C  C131  1  0.75762703  0.91950464  0.53842162  1
  C  C132  1  0.76760006  0.81663235  0.58034326  1
  C  C133  1  0.78703696  0.81713978  0.66032883  1
  C  C134  1  0.79712140  0.71922195  0.70275030  1
  C  C135  1  0.81826994  0.72337817  0.78749103  1
  C  C136  1  0.79024413  0.61694029  0.66429326  1
  C  C137  1  0.77155497  0.61412573  0.58585558  1
  C  C138  1  0.75869014  0.71309417  0.54157763  1
  C  C139  1  0.71092789  0.82309383  0.33975285  1
  I  I140  1  0.25417199  0.93091739  0.99119605  1
  I  I141  1  0.26037131  0.56944214  0.01989077  1
  I  I142  1  0.75127046  0.08590822  0.98982464  1
  I  I143  1  0.76305189  0.44140771  0.99354270  1
  I  I144  1  0.06827259  0.25344544  0.99040751  1
  I  I145  1  0.90423181  0.75511513  0.98885601  1
  I  I146  1  0.41552365  0.24337368  0.00525586  1
  I  I147  1  0.55436758  0.74102460  0.00636099  1
  I  I148  1  0.99451876  0.99703473  0.81055351  1
  I  I149  1  0.97773296  0.98299820  0.18480514  1
  I  I150  1  0.06266607  0.54434464  0.82184544  1
  I  I151  1  0.00384375  0.50149306  0.19309457  1
  I  I152  1  0.51494941  0.97442588  0.81917569  1
  I  I153  1  0.50128690  0.00218476  0.19267672  1
  I  I154  1  0.50185771  0.49217173  0.80060515  1
  I  I155  1  0.51123646  0.49516209  0.17345651  1
  N  N156  1  0.26547873  0.28459982  0.83774333  1
  N  N157  1  0.21253012  0.28230924  0.16372151  1
  N  N158  1  0.28369608  0.72360689  0.84033340  1
  N  N159  1  0.28324974  0.78726954  0.16517637  1
  N  N160  1  0.72550234  0.20434467  0.16790614  1
  N  N161  1  0.71455022  0.27588420  0.83566819  1
  N  N162  1  0.79289865  0.72151807  0.16914025  1
  N  N163  1  0.71563216  0.72163136  0.83600061  1
