# generated using pymatgen
data_H16PbC12S(I2N)2
_symmetry_space_group_name_H-M   'P 1'
_cell_length_a   12.43623022
_cell_length_b   12.48921788
_cell_length_c   16.41452053
_cell_angle_alpha   91.67079572
_cell_angle_beta   91.01723110
_cell_angle_gamma   89.22424157
_symmetry_Int_Tables_number   1
_chemical_formula_structural   H16PbC12S(I2N)2
_chemical_formula_sum   'H64 Pb4 C48 S4 I16 N8'
_cell_volume   2547.78163389
_cell_formula_units_Z   4
loop_
 _symmetry_equiv_pos_site_id
 _symmetry_equiv_pos_as_xyz
  1  'x, y, z'
loop_
 _atom_site_type_symbol
 _atom_site_label
 _atom_site_symmetry_multiplicity
 _atom_site_fract_x
 _atom_site_fract_y
 _atom_site_fract_z
 _atom_site_occupancy
  H  H0  1  0.25333990  0.34986857  0.83289967  1
  H  H1  1  0.32434115  0.23376049  0.83040745  1
  H  H2  1  0.22647742  0.25240284  0.89685090  1
  H  H3  1  0.15748310  0.13686284  0.79227861  1
  H  H4  1  0.09228124  0.26415222  0.79089013  1
  H  H5  1  0.14477925  0.39884886  0.68612003  1
  H  H6  1  0.19193268  0.42089846  0.54244199  1
  H  H7  1  0.22693483  0.13360319  0.37172269  1
  H  H8  1  0.29194666  0.11922809  0.21811250  1
  H  H9  1  0.36805644  0.22413160  0.17932814  1
  H  H10  1  0.19759015  0.19878716  0.11225755  1
  H  H11  1  0.12951876  0.23236501  0.19655065  1
  H  H12  1  0.20744296  0.32345311  0.15113242  1
  H  H13  1  0.38813903  0.40810133  0.27137189  1
  H  H14  1  0.30523951  0.09287861  0.52815753  1
  H  H15  1  0.25620613  0.07032211  0.67204276  1
  H  H16  1  0.34409519  0.71694672  0.82203429  1
  H  H17  1  0.21925289  0.66718045  0.82163401  1
  H  H18  1  0.25471506  0.75830160  0.89268155  1
  H  H19  1  0.13807911  0.83896307  0.79451080  1
  H  H20  1  0.26775272  0.89724896  0.79816277  1
  H  H21  1  0.39908345  0.85628478  0.68856661  1
  H  H22  1  0.42412202  0.81459369  0.54207592  1
  H  H23  1  0.13206127  0.76035292  0.37273680  1
  H  H24  1  0.12374671  0.71042219  0.21737858  1
  H  H25  1  0.22506669  0.62520719  0.17648986  1
  H  H26  1  0.20411373  0.79488467  0.11034786  1
  H  H27  1  0.24835770  0.86149305  0.19504666  1
  H  H28  1  0.33037982  0.77546528  0.14400191  1
  H  H29  1  0.42433645  0.62821130  0.26230069  1
  H  H30  1  0.09980604  0.69632929  0.52347760  1
  H  H31  1  0.07415510  0.74151305  0.66978709  1
  H  H32  1  0.66911785  0.20432488  0.17929554  1
  H  H33  1  0.79774321  0.16646749  0.16909988  1
  H  H34  1  0.74355207  0.25687831  0.10636778  1
  H  H35  1  0.86865140  0.33271601  0.21023906  1
  H  H36  1  0.73860094  0.39294539  0.20559490  1
  H  H37  1  0.60031413  0.35003210  0.31092828  1
  H  H38  1  0.57230235  0.30851505  0.45525680  1
  H  H39  1  0.86083426  0.27196125  0.62615707  1
  H  H40  1  0.87977414  0.20465954  0.77697460  1
  H  H41  1  0.77901455  0.12415720  0.81623727  1
  H  H42  1  0.80674610  0.29879587  0.88532114  1
  H  H43  1  0.74971541  0.36051174  0.80560915  1
  H  H44  1  0.67873230  0.27511686  0.85982799  1
  H  H45  1  0.58889557  0.10609177  0.72829186  1
  H  H46  1  0.90141946  0.19715422  0.47581888  1
  H  H47  1  0.92948871  0.24083029  0.33138008  1
  H  H48  1  0.76124754  0.64999353  0.16852298  1
  H  H49  1  0.82287366  0.76792984  0.17782745  1
  H  H50  1  0.72969403  0.75028387  0.10536419  1
  H  H51  1  0.65030506  0.85837235  0.20801778  1
  H  H52  1  0.59206045  0.72855669  0.20540339  1
  H  H53  1  0.64834308  0.59485486  0.31090215  1
  H  H54  1  0.69789627  0.57118718  0.45578121  1
  H  H55  1  0.72581159  0.85982509  0.62692040  1
  H  H56  1  0.78288948  0.87483247  0.78227103  1
  H  H57  1  0.87059654  0.77667166  0.82272684  1
  H  H58  1  0.69969561  0.78927516  0.88726936  1
  H  H59  1  0.63341675  0.74845688  0.80261929  1
  H  H60  1  0.72101627  0.66544601  0.84959682  1
  H  H61  1  0.89729402  0.58788766  0.73271114  1
  H  H62  1  0.80080927  0.89985133  0.47455303  1
  H  H63  1  0.74880263  0.92390604  0.32952066  1
  Pb  Pb64  1  0.98987593  0.00683112  0.00527772  1
  Pb  Pb65  1  0.01078043  0.51428183  0.01159719  1
  Pb  Pb66  1  0.50190447  0.00927807  0.01264445  1
  Pb  Pb67  1  0.49759570  0.50842760  0.98085671  1
  C  C68  1  0.16753856  0.22098904  0.77702324  1
  C  C69  1  0.19887174  0.23373800  0.68984072  1
  C  C70  1  0.18104071  0.33181371  0.65192971  1
  C  C71  1  0.20787076  0.34435831  0.57106025  1
  C  C72  1  0.25288966  0.25880066  0.52489595  1
  C  C73  1  0.28223879  0.27509991  0.44008160  1
  C  C74  1  0.26668074  0.21081295  0.37105303  1
  C  C75  1  0.30466762  0.25765048  0.29894355  1
  C  C76  1  0.29756296  0.20650483  0.21559387  1
  C  C77  1  0.34966057  0.35684966  0.31449202  1
  C  C78  1  0.26944829  0.15993582  0.56257240  1
  C  C79  1  0.24280776  0.14773773  0.64401287  1
  C  C80  1  0.22262240  0.82562291  0.77894083  1
  C  C81  1  0.23572388  0.80007877  0.68964728  1
  C  C82  1  0.33362661  0.82048200  0.65246449  1
  C  C83  1  0.34779461  0.79672935  0.57019929  1
  C  C84  1  0.26431900  0.75123390  0.52228394  1
  C  C85  1  0.28268912  0.72318584  0.43644474  1
  C  C86  1  0.21447631  0.73000948  0.36929266  1
  C  C87  1  0.26417270  0.69590654  0.29529220  1
  C  C88  1  0.21090216  0.69891143  0.21312350  1
  C  C89  1  0.36947518  0.66254027  0.30739355  1
  C  C90  1  0.16534241  0.73241248  0.55931514  1
  C  C91  1  0.15129028  0.75691123  0.64193496  1
  C  C92  1  0.78371231  0.32087324  0.22317900  1
  C  C93  1  0.76666275  0.29674855  0.31099674  1
  C  C94  1  0.66632513  0.31575642  0.34680036  1
  C  C95  1  0.65043220  0.29214241  0.42795478  1
  C  C96  1  0.73460799  0.24880373  0.47559899  1
  C  C97  1  0.71685296  0.21955938  0.55999375  1
  C  C98  1  0.78302268  0.23299515  0.62794883  1
  C  C99  1  0.73835188  0.19201975  0.69990234  1
  C  C100  1  0.79255458  0.19657281  0.78180887  1
  C  C101  1  0.63887285  0.14676370  0.68528673  1
  C  C102  1  0.83572881  0.23196618  0.44002729  1
  C  C103  1  0.85129018  0.25595230  0.35880634  1
  C  C104  1  0.66435834  0.77397676  0.22243316  1
  C  C105  1  0.69631742  0.76050029  0.31015035  1
  C  C106  1  0.68290899  0.66150581  0.34658445  1
  C  C107  1  0.71123516  0.64803598  0.42789883  1
  C  C108  1  0.75377700  0.73357904  0.47541930  1
  C  C109  1  0.78437520  0.71744269  0.56086806  1
  C  C110  1  0.76729302  0.78246770  0.62912839  1
  C  C111  1  0.80707406  0.73674510  0.70249539  1
  C  C112  1  0.79750064  0.78838679  0.78543192  1
  C  C113  1  0.85551437  0.63786224  0.68865819  1
  C  C114  1  0.76660560  0.83311081  0.43889372  1
  C  C115  1  0.73823131  0.84632219  0.35715001  1
  S  S116  1  0.34439572  0.39306195  0.41528629  1
  S  S117  1  0.40787730  0.67439237  0.40733051  1
  S  S118  1  0.59995745  0.15515724  0.58555266  1
  S  S119  1  0.85117367  0.60043905  0.58792023  1
  I  I120  1  0.24726983  0.06350934  0.00003814  1
  I  I121  1  0.25849429  0.44652372  0.03281898  1
  I  I122  1  0.74981180  0.92089159  0.00749333  1
  I  I123  1  0.75657864  0.53516038  0.96255114  1
  I  I124  1  0.95718049  0.26308635  0.99047072  1
  I  I125  1  0.07448112  0.76382715  0.99996305  1
  I  I126  1  0.55183775  0.25201780  0.97245074  1
  I  I127  1  0.46312749  0.75605709  0.03124721  1
  I  I128  1  0.98858915  0.99507925  0.81547946  1
  I  I129  1  0.98764790  0.03877822  0.20593468  1
  I  I130  1  0.07983484  0.51669275  0.82085898  1
  I  I131  1  0.99100447  0.51702557  0.20197383  1
  I  I132  1  0.50145536  0.95391199  0.82275696  1
  I  I133  1  0.53891899  0.05163205  0.20572138  1
  I  I134  1  0.47739132  0.54277177  0.78902211  1
  I  I135  1  0.55085732  0.49031361  0.16794410  1
  N  N136  1  0.24902596  0.26747944  0.83778949  1
  N  N137  1  0.20073175  0.24389177  0.16693835  1
  N  N138  1  0.26395779  0.73682066  0.83187130  1
  N  N139  1  0.25184814  0.78929478  0.16360153  1
  N  N140  1  0.74564140  0.23189370  0.16577394  1
  N  N141  1  0.75413353  0.28925084  0.83527373  1
  N  N142  1  0.75030460  0.73195255  0.16503674  1
  N  N143  1  0.70655358  0.74426855  0.83307086  1
