# generated using pymatgen
data_H14PbC10S(I2N)2
_symmetry_space_group_name_H-M   'P 1'
_cell_length_a   12.62077184
_cell_length_b   12.46019079
_cell_length_c   13.97597608
_cell_angle_alpha   89.06268450
_cell_angle_beta   89.19551730
_cell_angle_gamma   89.79641907
_symmetry_Int_Tables_number   1
_chemical_formula_structural   H14PbC10S(I2N)2
_chemical_formula_sum   'H56 Pb4 C40 S4 I16 N8'
_cell_volume   2197.30037241
_cell_formula_units_Z   4
loop_
 _symmetry_equiv_pos_site_id
 _symmetry_equiv_pos_as_xyz
  1  'x, y, z'
loop_
 _atom_site_type_symbol
 _atom_site_label
 _atom_site_symmetry_multiplicity
 _atom_site_fract_x
 _atom_site_fract_y
 _atom_site_fract_z
 _atom_site_occupancy
  H  H0  1  0.23078871  0.31293254  0.87507781  1
  H  H1  1  0.16211775  0.36406480  0.78448315  1
  H  H2  1  0.16898189  0.23094342  0.80286172  1
  H  H3  1  0.35755227  0.22679939  0.77078586  1
  H  H4  1  0.35607026  0.36912675  0.75778581  1
  H  H5  1  0.28589469  0.45805043  0.61077337  1
  H  H6  1  0.25150904  0.44438413  0.43917264  1
  H  H7  1  0.20796554  0.39752943  0.28715226  1
  H  H8  1  0.11891076  0.30271402  0.24119667  1
  H  H9  1  0.25199047  0.35763822  0.12542395  1
  H  H10  1  0.26381057  0.22569866  0.14841061  1
  H  H11  1  0.34977605  0.31279363  0.19392808  1
  H  H12  1  0.25878537  0.99623812  0.47839918  1
  H  H13  1  0.29391580  0.11264706  0.64579885  1
  H  H14  1  0.30443449  0.78707295  0.87502820  1
  H  H15  1  0.35214587  0.85300190  0.78028842  1
  H  H16  1  0.22010335  0.84476797  0.79596648  1
  H  H17  1  0.22569142  0.64952810  0.77894221  1
  H  H18  1  0.36611922  0.65580864  0.76787093  1
  H  H19  1  0.45313720  0.71784507  0.61697003  1
  H  H20  1  0.44129345  0.74626319  0.44305557  1
  H  H21  1  0.39911794  0.78866591  0.29543736  1
  H  H22  1  0.30710887  0.87951588  0.24533731  1
  H  H23  1  0.37300809  0.75482675  0.13237934  1
  H  H24  1  0.24324085  0.74188119  0.14457157  1
  H  H25  1  0.32384494  0.64938692  0.19342067  1
  H  H26  1  -0.00084721  0.73483945  0.47634658  1
  H  H27  1  0.11237096  0.70741121  0.64817419  1
  H  H28  1  0.70340521  0.25710938  0.11919175  1
  H  H29  1  0.64796914  0.33270321  0.20527420  1
  H  H30  1  0.78046772  0.31984826  0.19773138  1
  H  H31  1  0.76709625  0.12635904  0.22864842  1
  H  H32  1  0.62750657  0.14059066  0.23924331  1
  H  H33  1  0.54375884  0.21029132  0.38484097  1
  H  H34  1  0.55630676  0.24478167  0.55670503  1
  H  H35  1  0.60013689  0.29455688  0.70248172  1
  H  H36  1  0.69667063  0.37463877  0.75626348  1
  H  H37  1  0.62806772  0.24822811  0.86674113  1
  H  H38  1  0.75368688  0.21510010  0.84847075  1
  H  H39  1  0.65687096  0.14349137  0.79915983  1
  H  H40  1  0.99847794  0.23096964  0.52257112  1
  H  H41  1  0.88437205  0.19717908  0.35248823  1
  H  H42  1  0.75118029  0.69981177  0.12342716  1
  H  H43  1  0.68088828  0.63642361  0.21114569  1
  H  H44  1  0.67724749  0.77143611  0.20146151  1
  H  H45  1  0.86590367  0.78310694  0.22957211  1
  H  H46  1  0.87122599  0.64009168  0.24114047  1
  H  H47  1  0.79041442  0.54743330  0.38594346  1
  H  H48  1  0.75402067  0.55885010  0.55877615  1
  H  H49  1  0.70744682  0.60384596  0.70926538  1
  H  H50  1  0.63204448  0.70296980  0.76779734  1
  H  H51  1  0.76443100  0.63056032  0.86864512  1
  H  H52  1  0.79320330  0.75932649  0.84878442  1
  H  H53  1  0.86339725  0.66305176  0.79417132  1
  H  H54  1  0.76954932  0.00713443  0.52594895  1
  H  H55  1  0.80308278  0.89283940  0.35553580  1
  Pb  Pb56  1  0.01269254  0.99190329  0.00372062  1
  Pb  Pb57  1  -0.00320400  0.49286284  0.00775268  1
  Pb  Pb58  1  0.51433982  0.99509691  0.00596618  1
  Pb  Pb59  1  0.50965804  0.49471656  0.00895305  1
  C  C60  1  0.31189511  0.29562401  0.74330756  1
  C  C61  1  0.28970041  0.28510375  0.63894457  1
  C  C62  1  0.27806577  0.37888705  0.57913602  1
  C  C63  1  0.25895690  0.37136232  0.48278864  1
  C  C64  1  0.25026829  0.26789926  0.44116930  1
  C  C65  1  0.22893012  0.24015331  0.34634767  1
  C  C66  1  0.20050672  0.31355937  0.26585660  1
  C  C67  1  0.25233063  0.07821615  0.45137049  1
  C  C68  1  0.26309812  0.17320854  0.50178931  1
  C  C69  1  0.28325724  0.18406552  0.60067685  1
  C  C70  1  0.29203189  0.69725552  0.74973726  1
  C  C71  1  0.28237192  0.71341995  0.64345598  1
  C  C72  1  0.37536879  0.72363902  0.58394627  1
  C  C73  1  0.36906189  0.73902119  0.48648611  1
  C  C74  1  0.26743955  0.74469580  0.44321612  1
  C  C75  1  0.24166235  0.76309797  0.34685139  1
  C  C76  1  0.31768113  0.79599377  0.27018863  1
  C  C77  1  0.08046243  0.74153184  0.45059112  1
  C  C78  1  0.17340830  0.73291238  0.50309303  1
  C  C79  1  0.18319952  0.71688077  0.60332281  1
  C  C80  1  0.70317021  0.17960834  0.25361519  1
  C  C81  1  0.71417937  0.20381667  0.35793079  1
  C  C82  1  0.62166850  0.21719109  0.41714955  1
  C  C83  1  0.62842358  0.23641897  0.51343067  1
  C  C84  1  0.73027684  0.24349541  0.55577262  1
  C  C85  1  0.75635175  0.26304792  0.65118892  1
  C  C86  1  0.68155425  0.29423073  0.72863603  1
  C  C87  1  0.91723156  0.23914597  0.54813184  1
  C  C88  1  0.82415117  0.23005890  0.49608013  1
  C  C89  1  0.81380954  0.20959099  0.39697773  1
  C  C90  1  0.82321365  0.71173483  0.25602486  1
  C  C91  1  0.79672618  0.72052204  0.36043869  1
  C  C92  1  0.78273810  0.62598516  0.41902400  1
  C  C93  1  0.76300540  0.63233473  0.51584303  1
  C  C94  1  0.75636488  0.73522348  0.55902393  1
  C  C95  1  0.73736864  0.76149833  0.65501834  1
  C  C96  1  0.70979654  0.68649851  0.73474629  1
  C  C97  1  0.76186493  0.92484089  0.55184882  1
  C  C98  1  0.77012318  0.83070575  0.49948411  1
  C  C99  1  0.79049360  0.82106358  0.40000581  1
  S  S100  1  0.22391336  0.10309900  0.33535253  1
  S  S101  1  0.10665798  0.76681082  0.33336700  1
  S  S102  1  0.89127433  0.26532437  0.66450652  1
  S  S103  1  0.73638335  0.89803492  0.66870015  1
  I  I104  1  0.25780208  0.97906910  0.05684291  1
  I  I105  1  0.25094183  0.52759493  0.01696173  1
  I  I106  1  0.75548064  0.05456552  0.99430539  1
  I  I107  1  0.75294265  0.44544565  0.96929916  1
  I  I108  1  0.02915936  0.24480008  0.97590178  1
  I  I109  1  0.93056755  0.74324993  0.01540265  1
  I  I110  1  0.45661376  0.24928430  0.99869341  1
  I  I111  1  0.51812066  0.74761966  0.97197204  1
  I  I112  1  0.07364136  0.97402692  0.77413409  1
  I  I113  1  0.96953837  0.01372246  0.22327914  1
  I  I114  1  0.02019909  0.52294922  0.77542221  1
  I  I115  1  0.93841577  0.43317017  0.22621004  1
  I  I116  1  0.48458267  0.01642684  0.77328327  1
  I  I117  1  0.56042709  0.92722894  0.22425788  1
  I  I118  1  0.50514663  0.50051703  0.78755931  1
  I  I119  1  0.50457165  0.48937458  0.24752698  1
  N  N120  1  0.21252792  0.30103156  0.80422177  1
  N  N121  1  0.27087789  0.30056032  0.17831349  1
  N  N122  1  0.29174177  0.80145444  0.80323410  1
  N  N123  1  0.31346178  0.73060524  0.18020388  1
  N  N124  1  0.70863107  0.27862774  0.19004630  1
  N  N125  1  0.68129361  0.22075364  0.81519441  1
  N  N126  1  0.72627982  0.70333521  0.19435920  1
  N  N127  1  0.78734224  0.68619361  0.81594401  1
