# generated using pymatgen
data_H14PbC10S2(I2N)2
_symmetry_space_group_name_H-M   'P 1'
_cell_length_a   12.53833003
_cell_length_b   12.35652852
_cell_length_c   15.76715537
_cell_angle_alpha   85.92055690
_cell_angle_beta   87.90915257
_cell_angle_gamma   91.19328941
_symmetry_Int_Tables_number   1
_chemical_formula_structural   H14PbC10S2(I2N)2
_chemical_formula_sum   'H56 Pb4 C40 S8 I16 N8'
_cell_volume   2434.32543700
_cell_formula_units_Z   4
loop_
 _symmetry_equiv_pos_site_id
 _symmetry_equiv_pos_as_xyz
  1  'x, y, z'
loop_
 _atom_site_type_symbol
 _atom_site_label
 _atom_site_symmetry_multiplicity
 _atom_site_fract_x
 _atom_site_fract_y
 _atom_site_fract_z
 _atom_site_occupancy
  H  H0  1  0.29554120  0.31320850  0.84426570  1
  H  H1  1  0.32895972  0.19191314  0.80671480  1
  H  H2  1  0.24837322  0.19711406  0.89264253  1
  H  H3  1  0.11406250  0.29458668  0.80982364  1
  H  H4  1  0.13530692  0.15866500  0.78381327  1
  H  H5  1  0.19776690  0.45809173  0.69726558  1
  H  H6  1  0.23556904  0.04152292  0.49789164  1
  H  H7  1  0.35180551  0.34470997  0.22608595  1
  H  H8  1  0.39208167  0.21330139  0.20031948  1
  H  H9  1  0.26039606  0.29402695  0.10743004  1
  H  H10  1  0.21580918  0.17593452  0.15384910  1
  H  H11  1  0.16996787  0.29587887  0.18721459  1
  H  H12  1  0.28237824  0.36938650  0.37666699  1
  H  H13  1  0.20680471  0.12128933  0.63223541  1
  H  H14  1  0.29991581  0.69518902  0.85005494  1
  H  H15  1  0.18067984  0.66477570  0.80862702  1
  H  H16  1  0.18743792  0.74189279  0.89069968  1
  H  H17  1  0.29473214  0.88127071  0.80493126  1
  H  H18  1  0.16064711  0.86444826  0.77435197  1
  H  H19  1  0.45349602  0.81207092  0.70025584  1
  H  H20  1  0.04407076  0.75459379  0.49167709  1
  H  H21  1  0.34395662  0.65467628  0.23639649  1
  H  H22  1  0.21485743  0.60994984  0.20963030  1
  H  H23  1  0.29851726  0.75354232  0.11201586  1
  H  H24  1  0.17859011  0.78561764  0.14888306  1
  H  H25  1  0.29093141  0.84178474  0.18702871  1
  H  H26  1  0.36761094  0.72491341  0.38366439  1
  H  H27  1  0.12228333  0.78821435  0.62676377  1
  H  H28  1  0.69459652  0.19757590  0.15615816  1
  H  H29  1  0.81110884  0.16755224  0.20203908  1
  H  H30  1  0.80984866  0.24552835  0.11149455  1
  H  H31  1  0.70338034  0.38246100  0.18231851  1
  H  H32  1  0.83789789  0.36885946  0.21461999  1
  H  H33  1  0.54480802  0.30848437  0.29585416  1
  H  H34  1  0.95563984  0.25997443  0.50666034  1
  H  H35  1  0.65719601  0.14969880  0.77474112  1
  H  H36  1  0.78756076  0.11476165  0.80713172  1
  H  H37  1  0.70243710  0.25389355  0.88775028  1
  H  H38  1  0.81972277  0.29600039  0.84336071  1
  H  H39  1  0.70467323  0.34134826  0.80202112  1
  H  H40  1  0.63231280  0.21888230  0.62020248  1
  H  H41  1  0.87647985  0.29195766  0.36859365  1
  H  H42  1  0.79936004  0.70662038  0.15197531  1
  H  H43  1  0.82584763  0.82817416  0.19306772  1
  H  H44  1  0.74865191  0.82053872  0.10949656  1
  H  H45  1  0.61636422  0.70688075  0.19491654  1
  H  H46  1  0.63118747  0.84242218  0.22452763  1
  H  H47  1  0.68887704  0.54428303  0.30321133  1
  H  H48  1  0.74221375  0.95788128  0.50453769  1
  H  H49  1  0.84112264  0.65182535  0.76977745  1
  H  H50  1  0.88812075  0.78251070  0.79393507  1
  H  H51  1  0.74902627  0.70352320  0.89157504  1
  H  H52  1  0.71300869  0.82285933  0.84717749  1
  H  H53  1  0.66201397  0.70367768  0.81421847  1
  H  H54  1  0.77768343  0.62890313  0.62048331  1
  H  H55  1  0.71102823  0.87989615  0.37093958  1
  Pb  Pb56  1  0.98428721  0.99486459  0.01171057  1
  Pb  Pb57  1  0.00913909  0.49274004  0.00618778  1
  Pb  Pb58  1  0.48341367  1.00161366  0.99288038  1
  Pb  Pb59  1  0.51533811  0.49980433  0.98858427  1
  C  C60  1  0.17047523  0.24105022  0.77948938  1
  C  C61  1  0.19745001  0.27978741  0.68918439  1
  C  C62  1  0.20864085  0.38781573  0.66052106  1
  C  C63  1  0.23348401  0.26403306  0.54373764  1
  C  C64  1  0.25249813  0.21894175  0.46195452  1
  C  C65  1  0.25052543  0.10861825  0.45031585  1
  C  C66  1  0.29431557  0.21818430  0.31564788  1
  C  C67  1  0.32623792  0.25904858  0.22720263  1
  C  C68  1  0.27696350  0.28099077  0.38343939  1
  C  C69  1  0.21216256  0.20939882  0.62242502  1
  C  C70  1  0.23923553  0.82695948  0.77496698  1
  C  C71  1  0.27792241  0.80405050  0.68747040  1
  C  C72  1  0.38435837  0.79883211  0.66244690  1
  C  C73  1  0.26287527  0.76813577  0.54407994  1
  C  C74  1  0.21890137  0.74673890  0.46240617  1
  C  C75  1  0.11041763  0.74220577  0.44742534  1
  C  C76  1  0.21951466  0.70508778  0.31939441  1
  C  C77  1  0.26005565  0.67771222  0.23399461  1
  C  C78  1  0.28063913  0.72581030  0.38755056  1
  C  C79  1  0.20898163  0.78659480  0.61975485  1
  C  C80  1  0.75829068  0.32963027  0.21771652  1
  C  C81  1  0.72022027  0.30418793  0.30791591  1
  C  C82  1  0.61393617  0.29543841  0.33443970  1
  C  C83  1  0.73634998  0.26587643  0.45455229  1
  C  C84  1  0.78082075  0.24597526  0.53808118  1
  C  C85  1  0.88942246  0.24593711  0.55275366  1
  C  C86  1  0.78077144  0.20673452  0.68581518  1
  C  C87  1  0.74076191  0.17838902  0.77458911  1
  C  C88  1  0.71929467  0.22366168  0.61566309  1
  C  C89  1  0.78982003  0.28709817  0.37663207  1
  C  C90  1  0.66959611  0.76342205  0.22484104  1
  C  C91  1  0.69538103  0.72266139  0.31296543  1
  C  C92  1  0.70265934  0.61413778  0.33976697  1
  C  C93  1  0.73404833  0.73614898  0.45630539  1
  C  C94  1  0.75439081  0.78025842  0.53763000  1
  C  C95  1  0.75560404  0.89036383  0.55054117  1
  C  C96  1  0.79358351  0.77901328  0.68217392  1
  C  C97  1  0.82060667  0.73764256  0.76939463  1
  C  C98  1  0.77569487  0.71729540  0.61451643  1
  C  C99  1  0.71362648  0.79175291  0.37958716  1
  S  S100  1  0.23591872  0.40313522  0.55349845  1
  S  S101  1  0.27997217  0.08170833  0.34778438  1
  S  S102  1  0.39975756  0.77253702  0.55791787  1
  S  S103  1  0.08505439  0.71086221  0.34645248  1
  S  S104  1  0.59924865  0.26696157  0.44175965  1
  S  S105  1  0.91508574  0.21793657  0.65727005  1
  S  S106  1  0.73123978  0.59726090  0.44489374  1
  S  S107  1  0.78444671  0.91580420  0.65222910  1
  I  I108  1  0.22959095  0.05449577  0.01886399  1
  I  I109  1  0.26570944  0.44338429  0.97581805  1
  I  I110  1  0.72913135  0.95050048  0.97977164  1
  I  I111  1  0.76629958  0.56861044  0.02159623  1
  I  I112  1  0.93862737  0.24821456  0.98319044  1
  I  I113  1  0.05630966  0.74685239  0.02232253  1
  I  I114  1  0.56657040  0.24935726  0.01629410  1
  I  I115  1  0.43136299  0.75013113  0.97934622  1
  I  I116  1  0.99003736  0.98720243  0.81452131  1
  I  I117  1  0.93773834  0.99901244  0.21946099  1
  I  I118  1  0.01700394  0.52230535  0.80413950  1
  I  I119  1  0.04544765  0.44553486  0.20838601  1
  I  I120  1  0.46281373  0.04884793  0.78821595  1
  I  I121  1  0.46834541  0.98233284  0.19398063  1
  I  I122  1  0.57177073  0.51146418  0.78372875  1
  I  I123  1  0.49615682  0.51094634  0.18566389  1
  N  N124  1  0.26739603  0.23652379  0.83318358  1
  N  N125  1  0.23707460  0.25449822  0.16590461  1
  N  N126  1  0.22658335  0.72519459  0.83375893  1
  N  N127  1  0.25593750  0.77138407  0.16722537  1
  N  N128  1  0.76863578  0.22847685  0.16984939  1
  N  N129  1  0.74267434  0.27393989  0.82941713  1
  N  N130  1  0.76789980  0.77968250  0.16700984  1
  N  N131  1  0.72950923  0.74393251  0.83390928  1
