# generated using pymatgen
data_H14PbC10S2(I2N)2
_symmetry_space_group_name_H-M   'P 1'
_cell_length_a   12.40098020
_cell_length_b   12.36559708
_cell_length_c   15.76741786
_cell_angle_alpha   85.80587076
_cell_angle_beta   86.63300863
_cell_angle_gamma   91.41622188
_symmetry_Int_Tables_number   1
_chemical_formula_structural   H14PbC10S2(I2N)2
_chemical_formula_sum   'H56 Pb4 C40 S8 I16 N8'
_cell_volume   2406.20323349
_cell_formula_units_Z   4
loop_
 _symmetry_equiv_pos_site_id
 _symmetry_equiv_pos_as_xyz
  1  'x, y, z'
loop_
 _atom_site_type_symbol
 _atom_site_label
 _atom_site_symmetry_multiplicity
 _atom_site_fract_x
 _atom_site_fract_y
 _atom_site_fract_z
 _atom_site_occupancy
  H  H0  1  0.30470076  0.31758490  0.84320722  1
  H  H1  1  0.33159123  0.19877446  0.79999777  1
  H  H2  1  0.25190823  0.20081767  0.88843943  1
  H  H3  1  0.12195027  0.31534096  0.81249698  1
  H  H4  1  0.13065992  0.17900829  0.78384059  1
  H  H5  1  0.19599243  0.47559540  0.69757067  1
  H  H6  1  0.25743237  0.06514048  0.49229201  1
  H  H7  1  0.29511121  0.04028627  0.32883918  1
  H  H8  1  0.35177379  0.15658588  0.18768460  1
  H  H9  1  0.38106275  0.29780679  0.19474646  1
  H  H10  1  0.24247763  0.28275951  0.10181250  1
  H  H11  1  0.18018660  0.32592919  0.18951997  1
  H  H12  1  0.16837709  0.19573662  0.16781088  1
  H  H13  1  0.21497369  0.14009695  0.63120043  1
  H  H14  1  0.31989052  0.69961972  0.85241120  1
  H  H15  1  0.20481497  0.66422023  0.80797660  1
  H  H16  1  0.20138882  0.74277572  0.88955992  1
  H  H17  1  0.31672237  0.88132970  0.80060100  1
  H  H18  1  0.18076015  0.86499597  0.77282158  1
  H  H19  1  0.47583017  0.80858901  0.69523454  1
  H  H20  1  0.06410286  0.74127970  0.49156599  1
  H  H21  1  0.03797882  0.70390336  0.33171882  1
  H  H22  1  0.15254886  0.64997478  0.19642464  1
  H  H23  1  0.29026950  0.61918726  0.20901883  1
  H  H24  1  0.28412882  0.76235067  0.10399329  1
  H  H25  1  0.33226151  0.82040169  0.18741119  1
  H  H26  1  0.20341429  0.83590890  0.16343240  1
  H  H27  1  0.14036782  0.78171453  0.62778214  1
  H  H28  1  0.69251650  0.18965339  0.15746918  1
  H  H29  1  0.80901695  0.16885065  0.20566407  1
  H  H30  1  0.80850989  0.24478558  0.11399674  1
  H  H31  1  0.68448471  0.37255788  0.18385496  1
  H  H32  1  0.82065123  0.37234199  0.21525952  1
  H  H33  1  0.52753134  0.30284066  0.30013667  1
  H  H34  1  0.93837208  0.24562431  0.50948997  1
  H  H35  1  0.96287671  0.20616048  0.67349471  1
  H  H36  1  0.84597013  0.14806515  0.81463028  1
  H  H37  1  0.70588737  0.11721581  0.80591009  1
  H  H38  1  0.71973045  0.26069397  0.89433469  1
  H  H39  1  0.67640402  0.31779142  0.80400939  1
  H  H40  1  0.80577207  0.33481177  0.82561584  1
  H  H41  1  0.86273083  0.28474038  0.36864051  1
  H  H42  1  0.80725800  0.69380518  0.15278641  1
  H  H43  1  0.83254049  0.81421905  0.19504208  1
  H  H44  1  0.75609897  0.80768392  0.11157267  1
  H  H45  1  0.62267458  0.68806026  0.19702859  1
  H  H46  1  0.63265338  0.82356086  0.22692805  1
  H  H47  1  0.68658958  0.52774955  0.30574100  1
  H  H48  1  0.75568949  0.93691980  0.50962275  1
  H  H49  1  0.79561084  0.96053696  0.66936927  1
  H  H50  1  0.85070899  0.84290841  0.80525475  1
  H  H51  1  0.88413695  0.70564204  0.79147665  1
  H  H52  1  0.74357828  0.70138177  0.89616612  1
  H  H53  1  0.68456030  0.66020623  0.81100590  1
  H  H54  1  0.66831471  0.78693799  0.84086082  1
  H  H55  1  0.72109885  0.86282484  0.37193031  1
  Pb  Pb56  1  0.98978336  0.99260772  0.00521336  1
  Pb  Pb57  1  0.99306009  0.49555093  0.00349568  1
  Pb  Pb58  1  0.49090447  0.00484721  0.99687598  1
  Pb  Pb59  1  0.49861576  0.49489006  0.99212136  1
  C  C60  1  0.17316184  0.25839794  0.77949413  1
  C  C61  1  0.20117758  0.29781516  0.68894784  1
  C  C62  1  0.21015780  0.40616785  0.66047845  1
  C  C63  1  0.24258868  0.28435655  0.54320829  1
  C  C64  1  0.26303080  0.24038549  0.46138862  1
  C  C65  1  0.26750210  0.13217455  0.44348774  1
  C  C66  1  0.28703633  0.11852456  0.35576539  1
  C  C67  1  0.29832609  0.21548287  0.30625338  1
  C  C68  1  0.32151494  0.23148994  0.21263747  1
  C  C69  1  0.21983217  0.22830981  0.62188590  1
  C  C70  1  0.25967121  0.82661237  0.77271953  1
  C  C71  1  0.29817996  0.79992665  0.68545173  1
  C  C72  1  0.40588044  0.79361193  0.65896106  1
  C  C73  1  0.28302781  0.75610626  0.54426605  1
  C  C74  1  0.23845357  0.73437563  0.46409839  1
  C  C75  1  0.13050908  0.73009908  0.44502492  1
  C  C76  1  0.11624996  0.71048359  0.35912960  1
  C  C77  1  0.21242959  0.69934371  0.31228301  1
  C  C78  1  0.22814009  0.67919185  0.22081868  1
  C  C79  1  0.22810783  0.77846134  0.61991855  1
  C  C80  1  0.74362487  0.32584135  0.21931713  1
  C  C81  1  0.70494557  0.29788762  0.30981615  1
  C  C82  1  0.59719641  0.28873136  0.33758766  1
  C  C83  1  0.71958620  0.25572576  0.45580260  1
  C  C84  1  0.76377498  0.23488799  0.53809963  1
  C  C85  1  0.87158782  0.23247060  0.55738425  1
  C  C86  1  0.88491011  0.21180377  0.64542459  1
  C  C87  1  0.78813606  0.19760150  0.69349210  1
  C  C88  1  0.77155734  0.17708006  0.78737122  1
  C  C89  1  0.77492499  0.27901183  0.37741015  1
  C  C90  1  0.67408617  0.74616824  0.22692896  1
  C  C91  1  0.69962776  0.70572902  0.31475177  1
  C  C92  1  0.70373226  0.59718053  0.34167645  1
  C  C93  1  0.74266890  0.71807958  0.45653498  1
  C  C94  1  0.76493145  0.76162588  0.53673339  1
  C  C95  1  0.76814906  0.86953237  0.55606485  1
  C  C96  1  0.78867061  0.88236305  0.64210833  1
  C  C97  1  0.80138480  0.78501581  0.68881779  1
  C  C98  1  0.82297163  0.76714446  0.78030379  1
  C  C99  1  0.72185297  0.77463850  0.38037215  1
  S  S100  1  0.24116416  0.42336354  0.55341748  1
  S  S101  1  0.28497289  0.32451111  0.36874886  1
  S  S102  1  0.42168020  0.76142476  0.55562238  1
  S  S103  1  0.32121878  0.71151170  0.37512018  1
  S  S104  1  0.58086600  0.25763553  0.44481935  1
  S  S105  1  0.67982495  0.20917632  0.62939538  1
  S  S106  1  0.73456315  0.57912453  0.44578207  1
  S  S107  1  0.78976202  0.67707414  0.62560166  1
  I  I108  1  0.23989515  0.06317179  0.01844072  1
  I  I109  1  0.25059461  0.45056356  0.96532770  1
  I  I110  1  0.74019111  0.93465284  0.98036364  1
  I  I111  1  0.75033926  0.56090978  0.03043784  1
  I  I112  1  0.93747512  0.24413485  0.98673596  1
  I  I113  1  0.06863349  0.74529319  0.01679268  1
  I  I114  1  0.56756268  0.24585329  0.02378492  1
  I  I115  1  0.45294582  0.74909620  0.96944564  1
  I  I116  1  0.01759505  0.99428717  0.80554251  1
  I  I117  1  0.95922816  0.98706637  0.21423183  1
  I  I118  1  0.97249053  0.50543588  0.80183452  1
  I  I119  1  0.02561983  0.45054738  0.20617866  1
  I  I120  1  0.48183990  0.05667405  0.79520650  1
  I  I121  1  0.47683906  0.96585113  0.20118687  1
  I  I122  1  0.55408314  0.49706369  0.78758541  1
  I  I123  1  0.46922154  0.50534689  0.19093104  1
  N  N124  1  0.27199019  0.24342120  0.82984092  1
  N  N125  1  0.22218705  0.26090318  0.16553643  1
  N  N126  1  0.24568317  0.72634762  0.83359818  1
  N  N127  1  0.26432932  0.78078155  0.16592959  1
  N  N128  1  0.76456302  0.22557769  0.17217201  1
  N  N129  1  0.74157065  0.27881632  0.83013993  1
  N  N130  1  0.77468934  0.76619739  0.16883506  1
  N  N131  1  0.72353566  0.72670653  0.83478820  1
