# generated using pymatgen
data_H14PbC10S2(I2N)2
_symmetry_space_group_name_H-M   'P 1'
_cell_length_a   12.47967293
_cell_length_b   12.50863716
_cell_length_c   15.66716416
_cell_angle_alpha   93.48558824
_cell_angle_beta   91.88740939
_cell_angle_gamma   90.49729367
_symmetry_Int_Tables_number   1
_chemical_formula_structural   H14PbC10S2(I2N)2
_chemical_formula_sum   'H56 Pb4 C40 S8 I16 N8'
_cell_volume   2439.71379446
_cell_formula_units_Z   4
loop_
 _symmetry_equiv_pos_site_id
 _symmetry_equiv_pos_as_xyz
  1  'x, y, z'
loop_
 _atom_site_type_symbol
 _atom_site_label
 _atom_site_symmetry_multiplicity
 _atom_site_fract_x
 _atom_site_fract_y
 _atom_site_fract_z
 _atom_site_occupancy
  H  H0  1  0.16521154  0.30213308  0.81277728  1
  H  H1  1  0.21065950  0.18815360  0.85667670  1
  H  H2  1  0.25447974  0.30916206  0.89400910  1
  H  H3  1  0.35443568  0.34034722  0.77567222  1
  H  H4  1  0.38712069  0.21085831  0.80836535  1
  H  H5  1  0.27770100  0.35974532  0.62368207  1
  H  H6  1  0.24264460  0.42330507  0.48612819  1
  H  H7  1  0.20662203  0.44605330  0.32171049  1
  H  H8  1  0.12154449  0.18686481  0.19513041  1
  H  H9  1  0.13751937  0.32775095  0.18559658  1
  H  H10  1  0.25218551  0.20789193  0.09509939  1
  H  H11  1  0.32379669  0.17544639  0.18169671  1
  H  H12  1  0.31941666  0.30332627  0.15362028  1
  H  H13  1  0.23991626  0.03162340  0.51271192  1
  H  H14  1  0.26728584  0.84059590  0.81441303  1
  H  H15  1  0.17323933  0.77171689  0.86360496  1
  H  H16  1  0.30334539  0.75656451  0.88899538  1
  H  H17  1  0.34091909  0.65539344  0.76608190  1
  H  H18  1  0.21328005  0.60835238  0.79463051  1
  H  H19  1  0.36030202  0.72801045  0.61881026  1
  H  H20  1  0.42660664  0.76248742  0.48322529  1
  H  H21  1  0.45202213  0.79376514  0.32065612  1
  H  H22  1  0.19856959  0.87629882  0.20109980  1
  H  H23  1  0.33713568  0.85027249  0.18683198  1
  H  H24  1  0.21123158  0.73598038  0.09692074  1
  H  H25  1  0.16758277  0.67608326  0.18206232  1
  H  H26  1  0.29598847  0.66580640  0.15458869  1
  H  H27  1  0.03313470  0.75829141  0.51467655  1
  H  H28  1  0.70387416  0.34469609  0.19943990  1
  H  H29  1  0.80993116  0.29444963  0.14535827  1
  H  H30  1  0.68454729  0.26072781  0.11342519  1
  H  H31  1  0.65603054  0.15197976  0.22548656  1
  H  H32  1  0.78591976  0.12068938  0.18832130  1
  H  H33  1  0.63626900  0.22487729  0.38061936  1
  H  H34  1  0.57197366  0.25791162  0.51963390  1
  H  H35  1  0.54897762  0.29435282  0.68521066  1
  H  H36  1  0.80874385  0.37604929  0.81062971  1
  H  H37  1  0.66793438  0.35823444  0.82272449  1
  H  H38  1  0.78327681  0.23514445  0.90071763  1
  H  H39  1  0.82313770  0.17542601  0.80931451  1
  H  H40  1  0.69372200  0.16969691  0.83296968  1
  H  H41  1  0.96500613  0.26240108  0.48496060  1
  H  H42  1  0.65239071  0.70543658  0.18799866  1
  H  H43  1  0.70305875  0.81944951  0.14772030  1
  H  H44  1  0.73553651  0.69837993  0.10660853  1
  H  H45  1  0.83719133  0.65365689  0.22667841  1
  H  H46  1  0.88039985  0.78127200  0.19675493  1
  H  H47  1  0.76935326  0.63598571  0.37783989  1
  H  H48  1  0.74486842  0.57297506  0.51800067  1
  H  H49  1  0.70416954  0.55357519  0.68019796  1
  H  H50  1  0.60690037  0.80805664  0.79595983  1
  H  H51  1  0.64298036  0.67319266  0.81402848  1
  H  H52  1  0.74449264  0.81726883  0.90002180  1
  H  H53  1  0.80383752  0.85424028  0.81232423  1
  H  H54  1  0.82221731  0.73100231  0.84672036  1
  H  H55  1  0.74688449  0.96436238  0.48835726  1
  Pb  Pb56  1  0.99460409  0.99677609  0.98934824  1
  Pb  Pb57  1  0.00725273  0.49131763  0.99857849  1
  Pb  Pb58  1  0.49898817  0.00736384  0.00264053  1
  Pb  Pb59  1  0.51711789  0.50868074  0.00628896  1
  C  C60  1  0.32397364  0.25793884  0.77810295  1
  C  C61  1  0.29296171  0.21396553  0.69037876  1
  C  C62  1  0.27427604  0.27256017  0.61982050  1
  C  C63  1  0.25192121  0.20763199  0.54284099  1
  C  C64  1  0.23355326  0.25017270  0.45916045  1
  C  C65  1  0.23168224  0.35652327  0.43865491  1
  C  C66  1  0.21343721  0.36911951  0.35027681  1
  C  C67  1  0.20110865  0.27282199  0.30283791  1
  C  C68  1  0.17542071  0.25605594  0.20966524  1
  C  C69  1  0.25304467  0.09957684  0.55860189  1
  C  C70  1  0.25600520  0.67671542  0.76996555  1
  C  C71  1  0.21293707  0.70571779  0.68504651  1
  C  C72  1  0.27296008  0.72879571  0.61611504  1
  C  C73  1  0.20916519  0.75105690  0.54186608  1
  C  C74  1  0.25352260  0.77145559  0.45948243  1
  C  C75  1  0.36041122  0.77332383  0.43765519  1
  C  C76  1  0.37441671  0.78944956  0.35009913  1
  C  C77  1  0.27884063  0.80025506  0.30473487  1
  C  C78  1  0.26321578  0.81914766  0.21259428  1
  C  C79  1  0.10060575  0.74569422  0.55846271  1
  C  C80  1  0.73879478  0.18213205  0.22284066  1
  C  C81  1  0.78254318  0.21026569  0.31057115  1
  C  C82  1  0.72353236  0.22879016  0.38260418  1
  C  C83  1  0.78853409  0.25107832  0.45852035  1
  C  C84  1  0.74530328  0.26988355  0.54312855  1
  C  C85  1  0.63872066  0.27074521  0.56574040  1
  C  C86  1  0.62599559  0.28996633  0.65468592  1
  C  C87  1  0.72229922  0.30436132  0.70004576  1
  C  C88  1  0.73960822  0.32296892  0.79404079  1
  C  C89  1  0.89681496  0.24957454  0.44043950  1
  C  C90  1  0.81464446  0.73805567  0.22515313  1
  C  C91  1  0.79096681  0.78184026  0.31271084  1
  C  C92  1  0.77052234  0.72320278  0.38204344  1
  C  C93  1  0.75129425  0.78824807  0.45811395  1
  C  C94  1  0.73052948  0.74615954  0.54065381  1
  C  C95  1  0.73029955  0.64054733  0.56309699  1
  C  C96  1  0.70927405  0.62983873  0.65046817  1
  C  C97  1  0.69303976  0.72690299  0.69471244  1
  C  C98  1  0.66911289  0.74723870  0.78641579  1
  C  C99  1  0.75688276  0.89637472  0.44284326  1
  S  S100  1  0.21194479  0.16623033  0.36801132  1
  S  S101  1  0.28273146  0.07813682  0.66306238  1
  S  S102  1  0.17110364  0.79209339  0.37096117  1
  S  S103  1  0.07725694  0.71172415  0.66000927  1
  S  S104  1  0.82903295  0.29461587  0.63242947  1
  S  S105  1  0.91832619  0.22026014  0.33481089  1
  S  S106  1  0.70254521  0.83159262  0.62798671  1
  S  S107  1  0.78688430  0.91775857  0.33986949  1
  I  I108  1  0.24212727  0.03986648  0.95914975  1
  I  I109  1  0.26183324  0.46263794  0.01566503  1
  I  I110  1  0.74257366  0.95813798  0.03485276  1
  I  I111  1  0.76065651  0.56964252  0.97913707  1
  I  I112  1  0.94565143  0.25045829  0.02637444  1
  I  I113  1  0.03100613  0.74589282  0.96301280  1
  I  I114  1  0.55159238  0.25930023  0.99349509  1
  I  I115  1  0.44326557  0.75851561  0.00878395  1
  I  I116  1  0.93766066  0.00585422  0.78539255  1
  I  I117  1  0.01614402  0.98408625  0.18784661  1
  I  I118  1  0.02860087  0.44424664  0.79609034  1
  I  I119  1  0.02623251  0.53505589  0.20253899  1
  I  I120  1  0.54081593  0.01956389  0.80358403  1
  I  I121  1  0.46460813  0.04492482  0.20700965  1
  I  I122  1  0.49264354  0.50562951  0.80606688  1
  I  I123  1  0.54715314  0.52375306  0.21514374  1
  N  N124  1  0.23222701  0.26354709  0.83829502  1
  N  N125  1  0.27387114  0.23474643  0.15711659  1
  N  N126  1  0.24952406  0.76761474  0.83764691  1
  N  N127  1  0.23268291  0.71803403  0.15866857  1
  N  N128  1  0.73465993  0.27726864  0.16776518  1
  N  N129  1  0.76117380  0.21984797  0.83682255  1
  N  N130  1  0.71930521  0.74190027  0.16380805  1
  N  N131  1  0.76584016  0.78966798  0.83904801  1
