# generated using pymatgen
data_H14PbC10S2(I2N)2
_symmetry_space_group_name_H-M   'P 1'
_cell_length_a   12.49308153
_cell_length_b   12.20153323
_cell_length_c   16.02723941
_cell_angle_alpha   93.57145839
_cell_angle_beta   91.29028778
_cell_angle_gamma   90.75284232
_symmetry_Int_Tables_number   1
_chemical_formula_structural   H14PbC10S2(I2N)2
_chemical_formula_sum   'H56 Pb4 C40 S8 I16 N8'
_cell_volume   2437.48625157
_cell_formula_units_Z   4
loop_
 _symmetry_equiv_pos_site_id
 _symmetry_equiv_pos_as_xyz
  1  'x, y, z'
loop_
 _atom_site_type_symbol
 _atom_site_label
 _atom_site_symmetry_multiplicity
 _atom_site_fract_x
 _atom_site_fract_y
 _atom_site_fract_z
 _atom_site_occupancy
  H  H0  1  0.16472459  0.27980650  0.81125939  1
  H  H1  1  0.22999239  0.16571935  0.84180231  1
  H  H2  1  0.25445818  0.28900430  0.88944551  1
  H  H3  1  0.33450701  0.36195324  0.77388411  1
  H  H4  1  0.39870242  0.23833782  0.79767863  1
  H  H5  1  0.27983796  0.38151203  0.62341927  1
  H  H6  1  0.28412665  0.45314833  0.48670531  1
  H  H7  1  0.10422511  0.27718559  0.20437337  1
  H  H8  1  0.14521580  0.14424208  0.23042386  1
  H  H9  1  0.23434725  0.19169217  0.11016071  1
  H  H10  1  0.27832270  0.31258789  0.15158278  1
  H  H11  1  0.32706262  0.19282144  0.18671830  1
  H  H12  1  0.20855111  0.12226565  0.37907310  1
  H  H13  1  0.27007098  0.04918742  0.50401652  1
  H  H14  1  0.28144717  0.84690653  0.80961901  1
  H  H15  1  0.17837137  0.77650162  0.85011877  1
  H  H16  1  0.30279238  0.76165599  0.88538489  1
  H  H17  1  0.36118536  0.66524112  0.76572200  1
  H  H18  1  0.23782864  0.60514238  0.79338821  1
  H  H19  1  0.37858595  0.72352333  0.61726849  1
  H  H20  1  0.44694402  0.72588109  0.47963842  1
  H  H21  1  0.27439440  0.89191829  0.20988604  1
  H  H22  1  0.14456312  0.84721013  0.23739588  1
  H  H23  1  0.19105433  0.75183842  0.11262892  1
  H  H24  1  0.30959131  0.71409697  0.14803138  1
  H  H25  1  0.19452125  0.65914043  0.18475172  1
  H  H26  1  0.12279214  0.78304588  0.38464125  1
  H  H27  1  0.05280554  0.72346165  0.51150955  1
  H  H28  1  0.71560127  0.34721012  0.19847954  1
  H  H29  1  0.82475222  0.28411155  0.15685168  1
  H  H30  1  0.70321462  0.25933396  0.11503417  1
  H  H31  1  0.64158706  0.16312876  0.22696442  1
  H  H32  1  0.76578941  0.10728738  0.19426928  1
  H  H33  1  0.62198867  0.22016970  0.37982167  1
  H  H34  1  0.55164676  0.22206979  0.51783873  1
  H  H35  1  0.72252410  0.39243203  0.80381098  1
  H  H36  1  0.85328976  0.35597552  0.77035706  1
  H  H37  1  0.81308081  0.25661069  0.88684345  1
  H  H38  1  0.69455869  0.21242955  0.84895187  1
  H  H39  1  0.80864829  0.16374095  0.80573796  1
  H  H40  1  0.87579340  0.28781173  0.61934779  1
  H  H41  1  0.94640717  0.22928165  0.48881984  1
  H  H42  1  0.66063557  0.70852182  0.18898686  1
  H  H43  1  0.72460078  0.82298078  0.15661180  1
  H  H44  1  0.74730419  0.69903275  0.11142703  1
  H  H45  1  0.83086244  0.63185754  0.22935854  1
  H  H46  1  0.89441682  0.75648179  0.20424627  1
  H  H47  1  0.77550945  0.61534516  0.37857286  1
  H  H48  1  0.77951384  0.54665968  0.51587414  1
  H  H49  1  0.60734896  0.72456231  0.79261799  1
  H  H50  1  0.64965442  0.85779406  0.76634456  1
  H  H51  1  0.74080649  0.81301961  0.88855408  1
  H  H52  1  0.78175434  0.69182814  0.84911600  1
  H  H53  1  0.83094599  0.81151113  0.81318493  1
  H  H54  1  0.71233665  0.87856501  0.61866619  1
  H  H55  1  0.77527752  0.95022584  0.49337708  1
  Pb  Pb56  1  0.97652872  -0.00157053  0.98516404  1
  Pb  Pb57  1  0.01710657  0.49865049  0.99576939  1
  Pb  Pb58  1  0.48182861  0.01038612  0.00827374  1
  Pb  Pb59  1  0.51594125  0.50467762  0.01058131  1
  C  C60  1  0.32502134  0.27227798  0.77162820  1
  C  C61  1  0.30153794  0.22950795  0.68401730  1
  C  C62  1  0.28338445  0.29217742  0.61669822  1
  C  C63  1  0.26945912  0.22884804  0.53901097  1
  C  C64  1  0.25152273  0.27459958  0.45773476  1
  C  C65  1  0.26161826  0.38492756  0.44273366  1
  C  C66  1  0.20692727  0.27284904  0.31459054  1
  C  C67  1  0.17108858  0.23050407  0.22930319  1
  C  C68  1  0.22094029  0.21106475  0.38287821  1
  C  C69  1  0.27591708  0.11748800  0.55082753  1
  C  C70  1  0.27447551  0.67784245  0.76751956  1
  C  C71  1  0.23155833  0.69741834  0.68245574  1
  C  C72  1  0.29142412  0.71740913  0.61371648  1
  C  C73  1  0.22848376  0.72928413  0.53926547  1
  C  C74  1  0.27216755  0.74907359  0.45731496  1
  C  C75  1  0.38013830  0.74504912  0.43873287  1
  C  C76  1  0.26973131  0.79157142  0.31630269  1
  C  C77  1  0.22866641  0.82298327  0.23340462  1
  C  C78  1  0.20966397  0.77530288  0.38558654  1
  C  C79  1  0.12015672  0.71893706  0.55519336  1
  C  C80  1  0.72837994  0.17879719  0.22638263  1
  C  C81  1  0.77002242  0.20038453  0.31359493  1
  C  C82  1  0.70914953  0.21752816  0.38361955  1
  C  C83  1  0.77111942  0.23059441  0.45974292  1
  C  C84  1  0.72663534  0.24878408  0.54313618  1
  C  C85  1  0.61852489  0.24224630  0.56078423  1
  C  C86  1  0.72866468  0.29246473  0.68788963  1
  C  C87  1  0.76998529  0.32665734  0.77339461  1
  C  C88  1  0.78897440  0.27710524  0.61739163  1
  C  C89  1  0.87972997  0.22389485  0.44401840  1
  C  C90  1  0.82194267  0.72114242  0.23014807  1
  C  C91  1  0.80154884  0.76563237  0.31682718  1
  C  C92  1  0.78204049  0.70467925  0.38446272  1
  C  C93  1  0.77014121  0.76973280  0.46096916  1
  C  C94  1  0.75117434  0.72537264  0.54230262  1
  C  C95  1  0.75847184  0.61526061  0.55856112  1
  C  C96  1  0.70698283  0.72897108  0.68407728  1
  C  C97  1  0.67405413  0.77193758  0.76836778  1
  C  C98  1  0.72231756  0.78978430  0.61575964  1
  C  C99  1  0.77949975  0.88075664  0.44778999  1
  S  S100  1  0.23221512  0.41051656  0.34135671  1
  S  S101  1  0.30086837  0.09105351  0.65265204  1
  S  S102  1  0.40449231  0.77497386  0.33821455  1
  S  S103  1  0.09630128  0.69289375  0.65657301  1
  S  S104  1  0.59396937  0.27220478  0.66395368  1
  S  S105  1  0.90501014  0.20052484  0.34026464  1
  S  S106  1  0.72811389  0.59097900  0.65924673  1
  S  S107  1  0.80494568  0.90461950  0.34621831  1
  I  I108  1  0.22577989  0.05227592  0.98265373  1
  I  I109  1  0.27102952  0.43100099  0.01452822  1
  I  I110  1  0.72461550  0.94081545  0.01664865  1
  I  I111  1  0.77132326  0.56495022  0.98437619  1
  I  I112  1  0.94065228  0.25260887  0.01711110  1
  I  I113  1  0.06312910  0.75125573  0.98024010  1
  I  I114  1  0.57710034  0.25276718  0.99027409  1
  I  I115  1  0.42895746  0.75301976  0.01420271  1
  I  I116  1  0.93209302  0.99614272  0.78086504  1
  I  I117  1  0.98221928  0.98253106  0.17833467  1
  I  I118  1  0.05115376  0.45036698  0.79668602  1
  I  I119  1  0.03607532  0.51920649  0.19443954  1
  I  I120  1  0.47377375  0.99380624  0.81187643  1
  I  I121  1  0.45331762  0.04266795  0.21080957  1
  I  I122  1  0.51596706  0.51019236  0.81613460  1
  I  I123  1  0.57224171  0.50866920  0.21344970  1
  N  N124  1  0.23763374  0.24818190  0.83127672  1
  N  N125  1  0.25854460  0.23355831  0.16629914  1
  N  N126  1  0.25722495  0.77240703  0.83102451  1
  N  N127  1  0.23222652  0.73053030  0.16643189  1
  N  N128  1  0.74530935  0.27384339  0.17198292  1
  N  N129  1  0.77089230  0.23371160  0.83144745  1
  N  N130  1  0.73213826  0.74112504  0.16874566  1
  N  N131  1  0.76334019  0.77043273  0.83316360  1
