# generated using pymatgen
data_H14PbC10S(I2N)2
_symmetry_space_group_name_H-M   'P 1'
_cell_length_a   12.62673483
_cell_length_b   12.45557979
_cell_length_c   13.84578455
_cell_angle_alpha   87.97246899
_cell_angle_beta   88.15769303
_cell_angle_gamma   90.88217905
_symmetry_Int_Tables_number   1
_chemical_formula_structural   H14PbC10S(I2N)2
_chemical_formula_sum   'H56 Pb4 C40 S4 I16 N8'
_cell_volume   2174.78609316
_cell_formula_units_Z   4
loop_
 _symmetry_equiv_pos_site_id
 _symmetry_equiv_pos_as_xyz
  1  'x, y, z'
loop_
 _atom_site_type_symbol
 _atom_site_label
 _atom_site_symmetry_multiplicity
 _atom_site_fract_x
 _atom_site_fract_y
 _atom_site_fract_z
 _atom_site_occupancy
  H  H0  1  0.23564949  0.28818488  0.87413553  1
  H  H1  1  0.15999755  0.32531957  0.78415100  1
  H  H2  1  0.18515530  0.19429645  0.80233594  1
  H  H3  1  0.37147096  0.22428637  0.76393220  1
  H  H4  1  0.34902084  0.36484819  0.75058769  1
  H  H5  1  0.28405774  0.44155102  0.59747869  1
  H  H6  1  0.24007154  0.41786293  0.42707296  1
  H  H7  1  0.16908173  0.36056308  0.28097500  1
  H  H8  1  0.11990517  0.24765931  0.22184382  1
  H  H9  1  0.26218084  0.34138623  0.13023635  1
  H  H10  1  0.34814147  0.31534335  0.21677552  1
  H  H11  1  0.29192598  0.21361831  0.15588483  1
  H  H12  1  0.18365688  0.05158499  0.28086023  1
  H  H13  1  0.29548241  0.09750353  0.64823597  1
  H  H14  1  0.28189102  0.76655980  0.86915821  1
  H  H15  1  0.32809976  0.84338942  0.77664907  1
  H  H16  1  0.19793374  0.81913100  0.78769552  1
  H  H17  1  0.22820215  0.62458916  0.76883790  1
  H  H18  1  0.36649087  0.65409236  0.75525643  1
  H  H19  1  0.44162171  0.71511544  0.59552682  1
  H  H20  1  0.41718365  0.75978853  0.42215454  1
  H  H21  1  0.36049820  0.83001577  0.27206609  1
  H  H22  1  0.25011420  0.88181495  0.21132994  1
  H  H23  1  0.33369306  0.73804595  0.12643770  1
  H  H24  1  0.30712304  0.65071399  0.21834162  1
  H  H25  1  0.20689649  0.70806749  0.15677583  1
  H  H26  1  0.05417251  0.81617195  0.27734306  1
  H  H27  1  0.10299808  0.70088874  0.64954715  1
  H  H28  1  0.70793404  0.26079918  0.12730457  1
  H  H29  1  0.66990676  0.33969234  0.21548395  1
  H  H30  1  0.79938527  0.31366649  0.20075572  1
  H  H31  1  0.76296120  0.12239114  0.23833862  1
  H  H32  1  0.62635629  0.15180708  0.25410647  1
  H  H33  1  0.55803408  0.22087154  0.40553053  1
  H  H34  1  0.58526715  0.26519631  0.57546241  1
  H  H35  1  0.64411281  0.32998024  0.71794431  1
  H  H36  1  0.75500694  0.38194261  0.77626842  1
  H  H37  1  0.65791327  0.24135691  0.87061933  1
  H  H38  1  0.69057503  0.15049889  0.78998156  1
  H  H39  1  0.78564765  0.21189012  0.85134354  1
  H  H40  1  0.94926927  0.29954211  0.72150552  1
  H  H41  1  0.89535985  0.19704391  0.35168115  1
  H  H42  1  0.74819051  0.70724315  0.12592956  1
  H  H43  1  0.67205915  0.66032208  0.21808994  1
  H  H44  1  0.68598490  0.79358280  0.20097082  1
  H  H45  1  0.87480579  0.78280878  0.23109118  1
  H  H46  1  0.86029746  0.64038768  0.24847806  1
  H  H47  1  0.78235429  0.56179626  0.40140971  1
  H  H48  1  0.73690462  0.58553540  0.57442762  1
  H  H49  1  0.67730354  0.64138103  0.72553601  1
  H  H50  1  0.62494561  0.75172541  0.78663125  1
  H  H51  1  0.76618506  0.66888780  0.87170738  1
  H  H52  1  0.85383888  0.69289587  0.78117786  1
  H  H53  1  0.79766591  0.79687534  0.84026223  1
  H  H54  1  0.69829567  0.95159884  0.72440993  1
  H  H55  1  0.79932681  0.90552796  0.34848583  1
  Pb  Pb56  1  0.01660192  -0.00125443  0.99349305  1
  Pb  Pb57  1  0.00199231  0.49140984  0.00664155  1
  Pb  Pb58  1  0.51135842  0.98449054  0.00161510  1
  Pb  Pb59  1  0.50676645  0.49375004  0.00861490  1
  C  C60  1  0.31573001  0.28490656  0.73787020  1
  C  C61  1  0.29108804  0.27080350  0.63378852  1
  C  C62  1  0.27586780  0.36057746  0.57052903  1
  C  C63  1  0.25156539  0.34739557  0.47443471  1
  C  C64  1  0.24091435  0.24302212  0.43920383  1
  C  C65  1  0.21249871  0.20750975  0.34534977  1
  C  C66  1  0.18791511  0.27873473  0.26041969  1
  C  C67  1  0.20756175  0.09743621  0.34219007  1
  C  C68  1  0.25692893  0.15376814  0.50393722  1
  C  C69  1  0.28255157  0.16688586  0.60003145  1
  C  C70  1  0.28732243  0.68380526  0.73947000  1
  C  C71  1  0.27376015  0.70622519  0.63337005  1
  C  C72  1  0.36172025  0.72206286  0.56836383  1
  C  C73  1  0.34812684  0.74653474  0.47081222  1
  C  C74  1  0.24487559  0.75660415  0.43594329  1
  C  C75  1  0.20872377  0.78673595  0.34109396  1
  C  C76  1  0.27822217  0.81248544  0.25401988  1
  C  C77  1  0.10012079  0.79153682  0.33925159  1
  C  C78  1  0.15749412  0.73990305  0.50250027  1
  C  C79  1  0.17116343  0.71434039  0.59997041  1
  C  C80  1  0.70686629  0.18232575  0.26450697  1
  C  C81  1  0.72492591  0.20794661  0.36787212  1
  C  C82  1  0.63838371  0.22695832  0.43182315  1
  C  C83  1  0.65363231  0.25175392  0.52742042  1
  C  C84  1  0.75744097  0.25848548  0.56159237  1
  C  C85  1  0.79436729  0.28282516  0.65595154  1
  C  C86  1  0.72458398  0.31150507  0.73971831  1
  C  C87  1  0.90287610  0.28109390  0.65921402  1
  C  C88  1  0.84384017  0.23898217  0.49624009  1
  C  C89  1  0.82836303  0.21337014  0.40037257  1
  C  C90  1  0.82192258  0.71768681  0.25986542  1
  C  C91  1  0.79180653  0.73225036  0.36425216  1
  C  C92  1  0.77397897  0.64258248  0.42856165  1
  C  C93  1  0.74920664  0.65588758  0.52584304  1
  C  C94  1  0.74118588  0.76041146  0.56129154  1
  C  C95  1  0.71729880  0.79600017  0.65734371  1
  C  C96  1  0.69391931  0.72450735  0.74426135  1
  C  C97  1  0.71671577  0.90599460  0.66068552  1
  C  C98  1  0.75826524  0.84960666  0.49511286  1
  C  C99  1  0.78369967  0.83627798  0.39762114  1
  S  S100  1  0.23732899  0.03246701  0.44891126  1
  S  S101  1  0.03733422  0.75996742  0.44837774  1
  S  S102  1  0.96457474  0.25007437  0.55187655  1
  S  S103  1  0.74495760  0.97092630  0.55156066  1
  I  I104  1  0.25718097  0.05517873  0.04180804  1
  I  I105  1  0.25360128  0.46292818  0.98738617  1
  I  I106  1  0.75693587  0.95947416  0.94446720  1
  I  I107  1  0.75277127  0.53702174  0.00973543  1
  I  I108  1  0.95212881  0.24509119  0.95100211  1
  I  I109  1  0.04498390  0.74031337  0.04871121  1
  I  I110  1  0.53437854  0.24116095  0.01938577  1
  I  I111  1  0.45258133  0.74093789  0.98166629  1
  I  I112  1  0.07659981  0.98490941  0.76514587  1
  I  I113  1  0.95778886  0.02354172  0.21173942  1
  I  I114  1  0.99960722  0.53543971  0.77640884  1
  I  I115  1  0.95365233  0.43873006  0.23189458  1
  I  I116  1  0.46714407  0.00569085  0.77475267  1
  I  I117  1  0.55276005  0.93162637  0.22559406  1
  I  I118  1  0.51625285  0.49475968  0.78454621  1
  I  I119  1  0.49388983  0.48928905  0.24892979  1
  N  N120  1  0.21756786  0.27141038  0.80358274  1
  N  N121  1  0.27910307  0.28738461  0.18722536  1
  N  N122  1  0.27176468  0.78376025  0.79644194  1
  N  N123  1  0.28138883  0.72072097  0.18540003  1
  N  N124  1  0.72286290  0.28023705  0.19774956  1
  N  N125  1  0.71406459  0.22284664  0.81686696  1
  N  N126  1  0.72629795  0.72037875  0.19718340  1
  N  N127  1  0.78442550  0.72128995  0.81262650  1
