# generated using pymatgen
data_H12PbC8S2(I2N)2
_symmetry_space_group_name_H-M   'P 1'
_cell_length_a   12.28776549
_cell_length_b   12.27614069
_cell_length_c   14.60536534
_cell_angle_alpha   89.94758415
_cell_angle_beta   89.90959529
_cell_angle_gamma   89.93189786
_symmetry_Int_Tables_number   1
_chemical_formula_structural   H12PbC8S2(I2N)2
_chemical_formula_sum   'H48 Pb4 C32 S8 I16 N8'
_cell_volume   2203.16065866
_cell_formula_units_Z   4
loop_
 _symmetry_equiv_pos_site_id
 _symmetry_equiv_pos_as_xyz
  1  'x, y, z'
loop_
 _atom_site_type_symbol
 _atom_site_label
 _atom_site_symmetry_multiplicity
 _atom_site_fract_x
 _atom_site_fract_y
 _atom_site_fract_z
 _atom_site_occupancy
  H  H0  1  0.17544060  0.25835283  0.81565441  1
  H  H1  1  0.27752741  0.21498468  0.88235140  1
  H  H2  1  0.21819156  0.13063411  0.80627521  1
  H  H3  1  0.40196095  0.19816644  0.76529650  1
  H  H4  1  0.34631891  0.33184845  0.76223781  1
  H  H5  1  0.27986065  0.39776418  0.60589056  1
  H  H6  1  0.22030931  0.39789403  0.39406012  1
  H  H7  1  0.15740200  0.33101355  0.23611701  1
  H  H8  1  0.10507937  0.19610348  0.23142947  1
  H  H9  1  0.29431600  0.13331778  0.19729987  1
  H  H10  1  0.23589619  0.21453081  0.11862720  1
  H  H11  1  0.33192521  0.26247320  0.18822995  1
  H  H12  1  0.25698869  0.82446647  0.81620317  1
  H  H13  1  0.21380982  0.72173101  0.88276361  1
  H  H14  1  0.12947746  0.78135465  0.80713490  1
  H  H15  1  0.19745206  0.59794699  0.76549378  1
  H  H16  1  0.33087489  0.65358598  0.76247571  1
  H  H17  1  0.39694090  0.72026805  0.60609350  1
  H  H18  1  0.39718127  0.77955577  0.39389043  1
  H  H19  1  0.33006863  0.84243923  0.23573265  1
  H  H20  1  0.19509099  0.89464228  0.23104583  1
  H  H21  1  0.13317170  0.70524595  0.19690572  1
  H  H22  1  0.21358656  0.76405572  0.11826411  1
  H  H23  1  0.26247233  0.66778706  0.18777740  1
  H  H24  1  0.73857965  0.32959969  0.18856897  1
  H  H25  1  0.78618269  0.23334439  0.11880577  1
  H  H26  1  0.86735808  0.29119021  0.19747291  1
  H  H27  1  0.80409301  0.10235188  0.23194822  1
  H  H28  1  0.66933473  0.15541022  0.23654044  1
  H  H29  1  0.60235260  0.21953481  0.39421361  1
  H  H30  1  0.60218040  0.27973889  0.60601733  1
  H  H31  1  0.66821388  0.34466761  0.76305751  1
  H  H32  1  0.80191477  0.39956161  0.76649116  1
  H  H33  1  0.86898928  0.21433949  0.80465965  1
  H  H34  1  0.78454002  0.27244855  0.88182805  1
  H  H35  1  0.74127718  0.17194023  0.81340255  1
  H  H36  1  0.67059109  0.73894158  0.18804431  1
  H  H37  1  0.76654742  0.78788304  0.11847931  1
  H  H38  1  0.70804633  0.86806529  0.19739954  1
  H  H39  1  0.89717912  0.80520857  0.23148678  1
  H  H40  1  0.84467943  0.67023722  0.23598907  1
  H  H41  1  0.78058959  0.60278772  0.39381255  1
  H  H42  1  0.72074458  0.60261997  0.60593358  1
  H  H43  1  0.65604700  0.66885886  0.76319396  1
  H  H44  1  0.60077164  0.80264204  0.76668047  1
  H  H45  1  0.78482105  0.87014920  0.80549271  1
  H  H46  1  0.72729910  0.78528747  0.88214259  1
  H  H47  1  0.82835297  0.74240979  0.81355889  1
  Pb  Pb48  1  0.99936196  0.00870447  0.99170101  1
  Pb  Pb49  1  0.98933964  0.50250845  0.00145674  1
  Pb  Pb50  1  0.49518417  0.00141281  0.00129011  1
  Pb  Pb51  1  0.49513377  0.50595858  0.99831611  1
  C  C52  1  0.32888962  0.24576113  0.74809543  1
  C  C53  1  0.29502355  0.23074955  0.65147048  1
  C  C54  1  0.27462865  0.31160552  0.58863354  1
  C  C55  1  0.24870186  0.26944213  0.50030825  1
  C  C56  1  0.22447985  0.31173752  0.41160810  1
  C  C57  1  0.20572440  0.23092490  0.34856462  1
  C  C58  1  0.17607422  0.24532901  0.25088939  1
  C  C59  1  0.24856461  0.15480988  0.50044305  1
  C  C60  1  0.24483881  0.67116032  0.74836457  1
  C  C61  1  0.23003315  0.70534720  0.65168368  1
  C  C62  1  0.31087145  0.72556435  0.58878642  1
  C  C63  1  0.26883960  0.75129244  0.50029382  1
  C  C64  1  0.31110246  0.77529523  0.41145468  1
  C  C65  1  0.23035973  0.79380992  0.34830690  1
  C  C66  1  0.24452003  0.82359138  0.25053974  1
  C  C67  1  0.15431194  0.75142478  0.50040046  1
  C  C68  1  0.75497929  0.17368816  0.25123470  1
  C  C69  1  0.76923281  0.20411219  0.34871911  1
  C  C70  1  0.68838660  0.22373387  0.41169067  1
  C  C71  1  0.73051517  0.24866303  0.50020198  1
  C  C72  1  0.68827562  0.27457394  0.58861241  1
  C  C73  1  0.76899288  0.29464854  0.65137822  1
  C  C74  1  0.75413442  0.32697539  0.74844935  1
  C  C75  1  0.84504350  0.24841206  0.50016764  1
  C  C76  1  0.82607009  0.75593811  0.25081375  1
  C  C77  1  0.79560993  0.76987589  0.34842103  1
  C  C78  1  0.77627468  0.68891305  0.41138901  1
  C  C79  1  0.75154002  0.73104940  0.50007306  1
  C  C80  1  0.72588513  0.68880256  0.58858797  1
  C  C81  1  0.70596794  0.76962609  0.65151394  1
  C  C82  1  0.67350580  0.75487752  0.74863710  1
  C  C83  1  0.75172703  0.84569077  0.50015931  1
  S  S84  1  0.21522326  0.10009949  0.39626255  1
  S  S85  1  0.28410372  0.09980659  0.60410991  1
  S  S86  1  0.09967847  0.78443126  0.39607231  1
  S  S87  1  0.09927959  0.71618302  0.60418679  1
  S  S88  1  0.89983911  0.28382597  0.60377919  1
  S  S89  1  0.89987845  0.21397199  0.39614718  1
  S  S90  1  0.71659266  0.90058864  0.60394392  1
  S  S91  1  0.78576934  0.90058891  0.39606562  1
  I  I92  1  0.24741147  0.93165621  0.00380936  1
  I  I93  1  0.24369320  0.56566913  0.99545947  1
  I  I94  1  0.74840616  0.06222494  0.00507091  1
  I  I95  1  0.74420820  0.42347784  0.99558138  1
  I  I96  1  0.07118286  0.25507213  0.00429807  1
  I  I97  1  0.94083880  0.75569405  0.00427531  1
  I  I98  1  0.43183423  0.25164212  0.99533165  1
  I  I99  1  0.57486995  0.75221192  0.99596576  1
  I  I100  1  0.99977699  0.00448375  0.77169305  1
  I  I101  1  0.00077263  0.00204053  0.21005934  1
  I  I102  1  0.99644918  0.50244452  0.78367762  1
  I  I103  1  0.99595443  0.49812062  0.22357882  1
  I  I104  1  0.49892697  0.99944721  0.78341771  1
  I  I105  1  0.49777600  0.00053570  0.22374726  1
  I  I106  1  0.50011891  0.50144004  0.77501548  1
  I  I107  1  0.49816071  0.50385534  0.21656537  1
  N  N108  1  0.24382324  0.20976526  0.81667022  1
  N  N109  1  0.26546862  0.21137120  0.18541118  1
  N  N110  1  0.20868841  0.75594415  0.81714879  1
  N  N111  1  0.21100618  0.73417775  0.18504084  1
  N  N112  1  0.78932502  0.26272629  0.18560606  1
  N  N113  1  0.78993013  0.24014331  0.81562483  1
  N  N114  1  0.73700232  0.79017735  0.18529869  1
  N  N115  1  0.75985420  0.79079472  0.81595871  1
