# generated using pymatgen
data_H16PbC12S(I2N)2
_symmetry_space_group_name_H-M   'P 1'
_cell_length_a   12.37317953
_cell_length_b   12.42451622
_cell_length_c   16.37562748
_cell_angle_alpha   89.21130888
_cell_angle_beta   89.58441666
_cell_angle_gamma   89.81709608
_symmetry_Int_Tables_number   1
_chemical_formula_structural   H16PbC12S(I2N)2
_chemical_formula_sum   'H64 Pb4 C48 S4 I16 N8'
_cell_volume   2517.12106338
_cell_formula_units_Z   4
loop_
 _symmetry_equiv_pos_site_id
 _symmetry_equiv_pos_as_xyz
  1  'x, y, z'
loop_
 _atom_site_type_symbol
 _atom_site_label
 _atom_site_symmetry_multiplicity
 _atom_site_fract_x
 _atom_site_fract_y
 _atom_site_fract_z
 _atom_site_occupancy
  H  H0  1  0.25375591  0.32103223  0.89218030  1
  H  H1  1  0.32786147  0.24424320  0.82916283  1
  H  H2  1  0.30925354  0.37484877  0.80764475  1
  H  H3  1  0.11156927  0.34374243  0.79948551  1
  H  H4  1  0.13893197  0.20418088  0.81555263  1
  H  H5  1  0.14989598  0.43034885  0.66429490  1
  H  H6  1  0.17417423  0.40337442  0.51543243  1
  H  H7  1  0.16233478  0.05167832  0.42888000  1
  H  H8  1  0.20965764  0.06170429  0.27171266  1
  H  H9  1  0.38971667  0.29521225  0.21112922  1
  H  H10  1  0.32478331  0.17999541  0.17209561  1
  H  H11  1  0.20230185  0.38494589  0.19679324  1
  H  H12  1  0.27964828  0.36364183  0.11426276  1
  H  H13  1  0.17461975  0.28457298  0.13369443  1
  H  H14  1  0.24993853  0.06856937  0.56108254  1
  H  H15  1  0.22196517  0.09548244  0.70907659  1
  H  H16  1  0.33787741  0.75569497  0.89097418  1
  H  H17  1  0.25464190  0.68151522  0.83709478  1
  H  H18  1  0.38176126  0.69567081  0.80594471  1
  H  H19  1  0.34856752  0.89596573  0.79522044  1
  H  H20  1  0.21011133  0.86663311  0.81427603  1
  H  H21  1  0.43343281  0.85552105  0.66151902  1
  H  H22  1  0.40495909  0.82786676  0.51379620  1
  H  H23  1  0.05181653  0.83936597  0.42836143  1
  H  H24  1  0.05989446  0.79399169  0.27166231  1
  H  H25  1  0.28672222  0.60812330  0.21331079  1
  H  H26  1  0.17628143  0.68147945  0.17177535  1
  H  H27  1  0.38477574  0.79424119  0.19976273  1
  H  H28  1  0.37051499  0.71228511  0.12055627  1
  H  H29  1  0.29041470  0.81942709  0.12953527  1
  H  H30  1  0.07083501  0.74883624  0.56238234  1
  H  H31  1  0.09907716  0.77961131  0.70967399  1
  H  H32  1  0.67211784  0.23437901  0.10951813  1
  H  H33  1  0.75424168  0.16560507  0.17123764  1
  H  H34  1  0.62413970  0.17928220  0.19558010  1
  H  H35  1  0.65011882  0.37928565  0.19890763  1
  H  H36  1  0.79055096  0.35425451  0.18332481  1
  H  H37  1  0.56611613  0.34857476  0.33515735  1
  H  H38  1  0.59432679  0.32697117  0.48409085  1
  H  H39  1  0.94774347  0.33153694  0.57178737  1
  H  H40  1  0.93879900  0.27754818  0.72798716  1
  H  H41  1  0.70273143  0.10204053  0.78861213  1
  H  H42  1  0.82334908  0.16073580  0.82486233  1
  H  H43  1  0.60720866  0.26783567  0.81409049  1
  H  H44  1  0.66579543  0.21393354  0.89718834  1
  H  H45  1  0.71930451  0.32361734  0.85305205  1
  H  H46  1  0.92880936  0.24527077  0.43962473  1
  H  H47  1  0.90097969  0.26973973  0.29118221  1
  H  H48  1  0.76502209  0.66573271  0.11186377  1
  H  H49  1  0.83183130  0.75009939  0.16907140  1
  H  H50  1  0.81904417  0.62229227  0.19937543  1
  H  H51  1  0.61652984  0.65246944  0.20199114  1
  H  H52  1  0.64546237  0.79126398  0.18359410  1
  H  H53  1  0.64978121  0.56797024  0.33766072  1
  H  H54  1  0.67289860  0.59546665  0.48583268  1
  H  H55  1  0.66043059  0.94661619  0.57133598  1
  H  H56  1  0.71284674  0.93960942  0.72743921  1
  H  H57  1  0.90131508  0.71526837  0.78594129  1
  H  H58  1  0.83035306  0.82746330  0.82553065  1
  H  H59  1  0.73554208  0.60772510  0.80835700  1
  H  H60  1  0.79497470  0.65568686  0.89198343  1
  H  H61  1  0.68070942  0.71151660  0.85855988  1
  H  H62  1  0.75415474  0.92833521  0.43848580  1
  H  H63  1  0.72921108  0.90094592  0.29048031  1
  Pb  Pb64  1  -0.00081625  0.00700562  0.00491150  1
  Pb  Pb65  1  0.99735075  0.50654540  0.00224536  1
  Pb  Pb66  1  0.48939175  0.01223656  0.99803740  1
  Pb  Pb67  1  0.50286780  0.50629538  0.98933632  1
  C  C68  1  0.16921650  0.27860924  0.78673171  1
  C  C69  1  0.18686386  0.26497840  0.69680497  1
  C  C70  1  0.17398021  0.35144359  0.64166990  1
  C  C71  1  0.18729813  0.33619970  0.55796189  1
  C  C72  1  0.21384575  0.23395698  0.52750162  1
  C  C73  1  0.22633611  0.21369724  0.44008211  1
  C  C74  1  0.19989253  0.12087113  0.39890360  1
  C  C75  1  0.22472938  0.12613628  0.31454945  1
  C  C76  1  0.27092112  0.22259714  0.29115649  1
  C  C77  1  0.31249258  0.25214068  0.20883272  1
  C  C78  1  0.22712927  0.14779870  0.58333976  1
  C  C79  1  0.21304607  0.16315596  0.66657699  1
  C  C80  1  0.28438423  0.83691944  0.78497419  1
  C  C81  1  0.26860979  0.81716185  0.69580144  1
  C  C82  1  0.35424769  0.83022962  0.63995365  1
  C  C83  1  0.33823256  0.81484864  0.55673073  1
  C  C84  1  0.23564774  0.78642459  0.52728515  1
  C  C85  1  0.21417660  0.77333483  0.44007316  1
  C  C86  1  0.12060327  0.80102203  0.39873539  1
  C  C87  1  0.12477921  0.77701902  0.31461551  1
  C  C88  1  0.22096005  0.72994519  0.29147685  1
  C  C89  1  0.24868826  0.68797085  0.20956724  1
  C  C90  1  0.15030989  0.77271302  0.58386949  1
  C  C91  1  0.16651424  0.78841166  0.66680905  1
  C  C92  1  0.71669052  0.32350336  0.21280599  1
  C  C93  1  0.73145618  0.30878640  0.30300551  1
  C  C94  1  0.64549212  0.32451581  0.35795080  1
  C  C95  1  0.66124344  0.31241812  0.44181016  1
  C  C96  1  0.76360464  0.28424081  0.47259698  1
  C  C97  1  0.78391340  0.27053900  0.56005653  1
  C  C98  1  0.87800699  0.29421343  0.60127432  1
  C  C99  1  0.87332889  0.26607246  0.68505827  1
  C  C100  1  0.77611174  0.22075652  0.70812333  1
  C  C101  1  0.74922379  0.17697502  0.79038003  1
  C  C102  1  0.84944472  0.26881920  0.41696250  1
  C  C103  1  0.83358978  0.28138833  0.33346946  1
  C  C104  1  0.67394113  0.71734202  0.21418982  1
  C  C105  1  0.68852877  0.73269064  0.30403958  1
  C  C106  1  0.67368281  0.64694909  0.35961596  1
  C  C107  1  0.68674098  0.66234462  0.44314101  1
  C  C108  1  0.71461800  0.76425980  0.47292750  1
  C  C109  1  0.72747468  0.78523436  0.56016245  1
  C  C110  1  0.69971933  0.87827002  0.60108000  1
  C  C111  1  0.72688474  0.87458420  0.68476628  1
  C  C112  1  0.77614511  0.77951356  0.70803970  1
  C  C113  1  0.82166893  0.75423762  0.78956455  1
  C  C114  1  0.72995421  0.84962015  0.41659018  1
  C  C115  1  0.71665406  0.83409649  0.33337666  1
  S  S116  1  0.28354546  0.30743960  0.37353077  1
  S  S117  1  0.30704173  0.71539369  0.37401000  1
  S  S118  1  0.68942073  0.21306578  0.62594832  1
  S  S119  1  0.78874776  0.69361439  0.62604457  1
  I  I120  1  0.24332212  0.91998372  0.00460152  1
  I  I121  1  0.24979220  0.55221659  0.98819683  1
  I  I122  1  0.73863787  0.06066685  0.99425452  1
  I  I123  1  0.74883492  0.43516220  0.00101404  1
  I  I124  1  0.07171133  0.25279150  0.00207800  1
  I  I125  1  0.92790084  0.75149374  0.00128981  1
  I  I126  1  0.44459094  0.26152083  0.01056498  1
  I  I127  1  0.55330579  0.75893020  0.98327693  1
  I  I128  1  0.00677373  0.00156005  0.81220122  1
  I  I129  1  0.94178578  0.00544878  0.19868663  1
  I  I130  1  0.98501168  0.51498649  0.80750000  1
  I  I131  1  0.99719429  0.49938540  0.20182189  1
  I  I132  1  0.46417088  0.08026220  0.80211529  1
  I  I133  1  0.49777230  0.99703864  0.19402949  1
  I  I134  1  0.50122120  0.50333108  0.79130225  1
  I  I135  1  0.47095820  0.50310494  0.18582481  1
  N  N136  1  0.27151267  0.30689183  0.83133818  1
  N  N137  1  0.23747942  0.32592791  0.16141582  1
  N  N138  1  0.31680515  0.73633893  0.83177696  1
  N  N139  1  0.32864746  0.75773204  0.16283251  1
  N  N140  1  0.69009098  0.21968074  0.17033491  1
  N  N141  1  0.68085824  0.25200691  0.84109365  1
  N  N142  1  0.77808627  0.68661258  0.17192385  1
  N  N143  1  0.75289765  0.67703034  0.83943871  1
