# generated using pymatgen
data_H12PbC8S2(I2N)2
_symmetry_space_group_name_H-M   'P 1'
_cell_length_a   12.55288551
_cell_length_b   12.65151366
_cell_length_c   13.63213480
_cell_angle_alpha   90.78814107
_cell_angle_beta   90.61767695
_cell_angle_gamma   90.77093012
_symmetry_Int_Tables_number   1
_chemical_formula_structural   H12PbC8S2(I2N)2
_chemical_formula_sum   'H48 Pb4 C32 S8 I16 N8'
_cell_volume   2164.42929759
_cell_formula_units_Z   4
loop_
 _symmetry_equiv_pos_site_id
 _symmetry_equiv_pos_as_xyz
  1  'x, y, z'
loop_
 _atom_site_type_symbol
 _atom_site_label
 _atom_site_symmetry_multiplicity
 _atom_site_fract_x
 _atom_site_fract_y
 _atom_site_fract_z
 _atom_site_occupancy
  H  H0  1  0.16120757  0.13003436  0.77502446  1
  H  H1  1  0.24765284  0.17110387  0.86436711  1
  H  H2  1  0.17625265  0.25992060  0.80175501  1
  H  H3  1  0.36596179  0.25035868  0.75943585  1
  H  H4  1  0.34351851  0.11807438  0.72030027  1
  H  H5  1  0.29369114  0.40503574  0.64968284  1
  H  H6  1  0.21518728  0.40050329  0.24525800  1
  H  H7  1  0.20247827  0.09734314  0.31361066  1
  H  H8  1  0.12600473  0.18146367  0.23914420  1
  H  H9  1  0.29356536  0.22837933  0.15277639  1
  H  H10  1  0.25614173  0.10269107  0.14340807  1
  H  H11  1  0.35719677  0.13656954  0.21815922  1
  H  H12  1  0.13010357  0.83575349  0.76525314  1
  H  H13  1  0.13285963  0.75177986  0.85824754  1
  H  H14  1  0.24663661  0.80427007  0.81761086  1
  H  H15  1  0.23504218  0.62383700  0.76170490  1
  H  H16  1  0.10329479  0.64521608  0.71857889  1
  H  H17  1  0.39730630  0.69347911  0.65452052  1
  H  H18  1  0.40454446  0.78558508  0.25492213  1
  H  H19  1  0.09857357  0.79868647  0.31818594  1
  H  H20  1  0.18886330  0.87472713  0.24918634  1
  H  H21  1  0.22996360  0.70443512  0.15826125  1
  H  H22  1  0.10879343  0.75324077  0.14352874  1
  H  H23  1  0.12656172  0.64977691  0.21562659  1
  H  H24  1  0.87110900  0.35084626  0.23311930  1
  H  H25  1  0.85832535  0.26589802  0.13910716  1
  H  H26  1  0.75015857  0.32096935  0.18807605  1
  H  H27  1  0.76399709  0.13700615  0.23481098  1
  H  H28  1  0.89563209  0.16260055  0.27707702  1
  H  H29  1  0.60241020  0.22121320  0.34272035  1
  H  H30  1  0.59891354  0.31032462  0.74442928  1
  H  H31  1  0.90699166  0.30028293  0.68005651  1
  H  H32  1  0.82610307  0.38418488  0.75072296  1
  H  H33  1  0.77939025  0.24172831  0.85385014  1
  H  H34  1  0.91010744  0.25472799  0.84498308  1
  H  H35  1  0.84892477  0.15401662  0.78533877  1
  H  H36  1  0.65511456  0.88208074  0.23691617  1
  H  H37  1  0.74066698  0.86805975  0.14562548  1
  H  H38  1  0.67472872  0.76287294  0.18427865  1
  H  H39  1  0.85873178  0.75921061  0.23981962  1
  H  H40  1  0.84550125  0.88912314  0.28704290  1
  H  H41  1  0.77757543  0.59975406  0.34468067  1
  H  H42  1  0.69037735  0.59196421  0.74542645  1
  H  H43  1  0.69685917  0.89739910  0.68397362  1
  H  H44  1  0.61255805  0.81233853  0.75017149  1
  H  H45  1  0.75899345  0.76947161  0.85635994  1
  H  H46  1  0.74082612  0.89836362  0.85323206  1
  H  H47  1  0.84326863  0.84695105  0.79263442  1
  Pb  Pb48  1  0.00993061  -0.00037992  0.98498923  1
  Pb  Pb49  1  1.00417415  0.49053323  0.00187011  1
  Pb  Pb50  1  0.50189142  0.01161258  0.00215978  1
  Pb  Pb51  1  0.50791696  0.50504852  0.01049698  1
  C  C52  1  0.30748482  0.19651710  0.72390140  1
  C  C53  1  0.27745840  0.23597297  0.62555145  1
  C  C54  1  0.27704569  0.34032494  0.59804177  1
  C  C55  1  0.25860927  0.34990830  0.49606882  1
  C  C56  1  0.22863650  0.36811890  0.31786260  1
  C  C57  1  0.22853720  0.26283015  0.34348264  1
  C  C58  1  0.20393972  0.17279635  0.27501825  1
  C  C59  1  0.24615909  0.25249435  0.44628733  1
  C  C60  1  0.18325153  0.68083680  0.72482989  1
  C  C61  1  0.22738930  0.70919678  0.62788098  1
  C  C62  1  0.33353964  0.71131410  0.60271281  1
  C  C63  1  0.34639931  0.73381507  0.50204393  1
  C  C64  1  0.37008118  0.76841408  0.32595235  1
  C  C65  1  0.26335184  0.76800081  0.34946213  1
  C  C66  1  0.17543649  0.79655243  0.28081253  1
  C  C67  1  0.24990212  0.74774754  0.45107895  1
  C  C68  1  0.81547657  0.19578614  0.27280274  1
  C  C69  1  0.77291611  0.22222287  0.37119692  1
  C  C70  1  0.66723476  0.23039392  0.39584447  1
  C  C71  1  0.65541687  0.24975978  0.49752894  1
  C  C72  1  0.63315945  0.28857418  0.67407103  1
  C  C73  1  0.73972367  0.27886328  0.65165890  1
  C  C74  1  0.83117670  0.30431736  0.71878154  1
  C  C75  1  0.75218403  0.25578972  0.54983253  1
  C  C76  1  0.80450506  0.81253826  0.27854902  1
  C  C77  1  0.77487849  0.76855010  0.37481884  1
  C  C78  1  0.76850302  0.66321651  0.39850593  1
  C  C79  1  0.75009004  0.65033490  0.49982207  1
  C  C80  1  0.71321891  0.62638966  0.67588006  1
  C  C81  1  0.72103628  0.73257426  0.65405248  1
  C  C82  1  0.69347029  0.82143461  0.72156729  1
  C  C83  1  0.74307797  0.74601771  0.55261311  1
  S  S84  1  0.25035558  0.45340635  0.41539779  1
  S  S85  1  0.25619445  0.14856520  0.52648031  1
  S  S86  1  0.45311397  0.74402458  0.42378953  1
  S  S87  1  0.14266879  0.73402414  0.52823803  1
  S  S88  1  0.54942872  0.27080595  0.57440241  1
  S  S89  1  0.85873778  0.23830378  0.47247049  1
  S  S90  1  0.73149884  0.54413519  0.57606061  1
  S  S91  1  0.75922994  0.85273926  0.47648047  1
  I  I92  1  0.25693402  0.92983162  0.01064340  1
  I  I93  1  0.25257690  0.53765253  0.03795368  1
  I  I94  1  0.76047855  0.05025181  0.99776070  1
  I  I95  1  0.75204405  0.41883718  0.97345909  1
  I  I96  1  0.05588341  0.24394098  0.02999722  1
  I  I97  1  0.96158000  0.74446673  0.98029221  1
  I  I98  1  0.42199354  0.24572710  0.98909766  1
  I  I99  1  0.57599104  0.75041972  0.99616261  1
  I  I100  1  -0.00067135  0.99449162  0.73366675  1
  I  I101  1  0.00329433  0.98911155  0.20534566  1
  I  I102  1  0.06994612  0.42717102  0.78571871  1
  I  I103  1  0.97707503  0.51984679  0.24080472  1
  I  I104  1  0.49986668  -0.00046084  0.77893344  1
  I  I105  1  0.51546554  0.02142181  0.24990025  1
  I  I106  1  0.45555426  0.50957901  0.78061841  1
  I  I107  1  0.55681283  0.49023858  0.23685497  1
  N  N108  1  0.21665311  0.18813115  0.79566447  1
  N  N109  1  0.28219518  0.16058447  0.19320695  1
  N  N110  1  0.17345462  0.77414103  0.79542627  1
  N  N111  1  0.16054716  0.72214494  0.19515201  1
  N  N112  1  0.82349713  0.28883970  0.20451949  1
  N  N113  1  0.84191619  0.23264503  0.80552521  1
  N  N114  1  0.71307069  0.83156355  0.20820430  1
  N  N115  1  0.76429042  0.83379982  0.81074039  1
