# generated using pymatgen
data_H10PbC5S(I2N)2
_symmetry_space_group_name_H-M   'P 1'
_cell_length_a   12.61981250
_cell_length_b   12.29765722
_cell_length_c   11.10228858
_cell_angle_alpha   90.45080855
_cell_angle_beta   89.80646862
_cell_angle_gamma   88.62738545
_symmetry_Int_Tables_number   1
_chemical_formula_structural   H10PbC5S(I2N)2
_chemical_formula_sum   'H40 Pb4 C20 S4 I16 N8'
_cell_volume   1722.45130922
_cell_formula_units_Z   4
loop_
 _symmetry_equiv_pos_site_id
 _symmetry_equiv_pos_as_xyz
  1  'x, y, z'
loop_
 _atom_site_type_symbol
 _atom_site_label
 _atom_site_symmetry_multiplicity
 _atom_site_fract_x
 _atom_site_fract_y
 _atom_site_fract_z
 _atom_site_occupancy
  H  H0  1  0.13076591  0.33217467  0.73960508  1
  H  H1  1  0.16950246  0.19870638  0.74741671  1
  H  H2  1  0.21733753  0.29070710  0.84353100  1
  H  H3  1  0.29247655  0.39161429  0.66883773  1
  H  H4  1  0.35804498  0.26744269  0.70865239  1
  H  H5  1  0.22413840  0.40920775  0.44603984  1
  H  H6  1  0.26428483  0.30462293  0.17151286  1
  H  H7  1  0.15320367  0.36927992  0.23292144  1
  H  H8  1  0.14738500  0.24375041  0.17696469  1
  H  H9  1  0.23715586  0.07695694  0.30103956  1
  H  H10  1  0.34019081  0.88152933  0.73549450  1
  H  H11  1  0.21131085  0.85339386  0.74543969  1
  H  H12  1  0.29929652  0.79804510  0.84303847  1
  H  H13  1  0.39411706  0.70621113  0.67132388  1
  H  H14  1  0.27188929  0.65169655  0.71740612  1
  H  H15  1  0.41353389  0.75689559  0.44439823  1
  H  H16  1  0.30176983  0.71046581  0.16829068  1
  H  H17  1  0.38318900  0.80672650  0.22716941  1
  H  H18  1  0.26481269  0.84226914  0.17506352  1
  H  H19  1  0.08984187  0.76603478  0.30410147  1
  H  H20  1  0.66923592  0.35736950  0.26060745  1
  H  H21  1  0.78929542  0.29937500  0.23291113  1
  H  H22  1  0.68527434  0.25929074  0.15513264  1
  H  H23  1  0.59978524  0.19397414  0.33831664  1
  H  H24  1  0.71575058  0.12000038  0.29199934  1
  H  H25  1  0.59304953  0.25342860  0.56280186  1
  H  H26  1  0.70667813  0.21413968  0.83021978  1
  H  H27  1  0.64127273  0.32782825  0.77408345  1
  H  H28  1  0.76505477  0.33396733  0.82201440  1
  H  H29  1  0.92288488  0.25069380  0.68297638  1
  H  H30  1  0.64363267  0.66395322  0.25485048  1
  H  H31  1  0.66995648  0.79738356  0.24972684  1
  H  H32  1  0.73185472  0.70988240  0.15312171  1
  H  H33  1  0.80721949  0.60900038  0.32821746  1
  H  H34  1  0.86446417  0.73390132  0.28825261  1
  H  H35  1  0.74303322  0.58695580  0.54841105  1
  H  H36  1  0.78293362  0.69999967  0.83279229  1
  H  H37  1  0.69710023  0.61232445  0.76797475  1
  H  H38  1  0.65372708  0.73156709  0.81940533  1
  H  H39  1  0.74411313  0.91554919  0.70390072  1
  Pb  Pb40  1  -0.00255084  0.99893710  0.99447649  1
  Pb  Pb41  1  0.00656029  0.51766626  0.99578156  1
  Pb  Pb42  1  0.50412762  0.01092392  0.99898095  1
  Pb  Pb43  1  0.49901256  0.49867292  0.01644317  1
  C  C44  1  0.28545307  0.30282816  0.66939241  1
  C  C45  1  0.26598450  0.26118334  0.54518426  1
  C  C46  1  0.23678989  0.32122843  0.44549814  1
  C  C47  1  0.22441136  0.25325593  0.34324269  1
  C  C48  1  0.24309556  0.14453648  0.36415690  1
  C  C49  1  0.30804121  0.72121392  0.67286819  1
  C  C50  1  0.26773190  0.73761449  0.54826923  1
  C  C51  1  0.32744641  0.75335727  0.44591268  1
  C  C52  1  0.26224805  0.76447118  0.34298384  1
  C  C53  1  0.15563430  0.75804833  0.36636009  1
  C  C54  1  0.68637482  0.19727904  0.33142639  1
  C  C55  1  0.73340365  0.22037550  0.45141595  1
  C  C56  1  0.67895413  0.24548282  0.55634303  1
  C  C57  1  0.74943503  0.25835983  0.65417846  1
  C  C58  1  0.85452420  0.24430186  0.62452102  1
  C  C59  1  0.79381455  0.69750993  0.32747206  1
  C  C60  1  0.77180127  0.73785874  0.45215827  1
  C  C61  1  0.74972701  0.67509995  0.55118276  1
  C  C62  1  0.73810458  0.73965282  0.65655873  1
  C  C63  1  0.75036613  0.84920862  0.63880333  1
  S  S64  1  0.27832999  0.12404961  0.50975525  1
  S  S65  1  0.13380152  0.73605693  0.51533498  1
  S  S66  1  0.86897658  0.21240595  0.47588129  1
  S  S67  1  0.77858508  0.87395787  0.49165056  1
  I  I68  1  0.24701044  0.99227488  0.03192494  1
  I  I69  1  0.25033651  0.57419697  0.99070771  1
  I  I70  1  0.74226759  0.07810912  0.98899600  1
  I  I71  1  0.74927436  0.47300397  0.01301697  1
  I  I72  1  0.01284082  0.25745338  0.99507864  1
  I  I73  1  0.90283079  0.75782917  0.99630425  1
  I  I74  1  0.44099700  0.25807939  0.06860588  1
  I  I75  1  0.51204858  0.75585863  0.96630178  1
  I  I76  1  0.06662645  0.00793075  0.71079516  1
  I  I77  1  0.97478344  0.99409338  0.27093579  1
  I  I78  1  0.01239313  0.49706663  0.70826893  1
  I  I79  1  0.01496416  0.49836363  0.28408271  1
  I  I80  1  0.48607706  0.02497658  0.71737572  1
  I  I81  1  0.52483897  0.94365824  0.28437412  1
  I  I82  1  0.52205407  0.48145645  0.72513675  1
  I  I83  1  0.52518864  0.51301327  0.30843195  1
  N  N84  1  0.19566800  0.27857758  0.75514769  1
  N  N85  1  0.19681647  0.29484120  0.22477417  1
  N  N86  1  0.28762933  0.81896241  0.75403931  1
  N  N87  1  0.30494069  0.78007554  0.22233513  1
  N  N88  1  0.70955954  0.28414987  0.23984811  1
  N  N89  1  0.71371754  0.28364283  0.77626144  1
  N  N90  1  0.70433585  0.71941207  0.24062104  1
  N  N91  1  0.71790119  0.69327310  0.77443958  1
