# generated using pymatgen
data_H14PbC7S(I2N)2
_symmetry_space_group_name_H-M   'P 1'
_cell_length_a   12.41823433
_cell_length_b   12.31023715
_cell_length_c   13.43921308
_cell_angle_alpha   88.72175581
_cell_angle_beta   88.62347400
_cell_angle_gamma   89.11291260
_symmetry_Int_Tables_number   1
_chemical_formula_structural   H14PbC7S(I2N)2
_chemical_formula_sum   'H56 Pb4 C28 S4 I16 N8'
_cell_volume   2053.13784786
_cell_formula_units_Z   4
loop_
 _symmetry_equiv_pos_site_id
 _symmetry_equiv_pos_as_xyz
  1  'x, y, z'
loop_
 _atom_site_type_symbol
 _atom_site_label
 _atom_site_symmetry_multiplicity
 _atom_site_fract_x
 _atom_site_fract_y
 _atom_site_fract_z
 _atom_site_occupancy
  H  H0  1  0.33193426  0.25380503  0.83541791  1
  H  H1  1  0.29039243  0.37941889  0.81218720  1
  H  H2  1  0.20648307  0.28961339  0.87012175  1
  H  H3  1  0.20223507  0.18042973  0.72256821  1
  H  H4  1  0.15200883  0.31506654  0.70045137  1
  H  H5  1  0.33096741  0.37114220  0.62824933  1
  H  H6  1  0.38587907  0.24053758  0.65603255  1
  H  H7  1  0.25608528  0.40028224  0.45123819  1
  H  H8  1  0.12308954  0.25083123  0.23742777  1
  H  H9  1  0.16000444  0.38198805  0.27513474  1
  H  H10  1  0.31889224  0.21888966  0.19561800  1
  H  H11  1  0.25598256  0.31557140  0.12694626  1
  H  H12  1  0.34018961  0.35026065  0.21674214  1
  H  H13  1  0.19167560  0.07566242  0.34414278  1
  H  H14  1  0.24177150  0.67211331  0.84051599  1
  H  H15  1  0.36766275  0.70443749  0.81549622  1
  H  H16  1  0.28208854  0.79593334  0.87018826  1
  H  H17  1  0.17366963  0.80292382  0.72034184  1
  H  H18  1  0.30700576  0.85179062  0.69984319  1
  H  H19  1  0.36752435  0.67300501  0.63303684  1
  H  H20  1  0.24028322  0.61644494  0.66142958  1
  H  H21  1  0.39850784  0.74821550  0.45538569  1
  H  H22  1  0.25634729  0.88426697  0.23434724  1
  H  H23  1  0.38440767  0.83894127  0.27492702  1
  H  H24  1  0.22044108  0.69564847  0.18915384  1
  H  H25  1  0.32165492  0.75188340  0.12647242  1
  H  H26  1  0.34652893  0.65849717  0.21801085  1
  H  H27  1  0.07806148  0.80714247  0.33625695  1
  H  H28  1  0.75351486  0.16322356  0.16213865  1
  H  H29  1  0.62631137  0.19796012  0.18600172  1
  H  H30  1  0.71064219  0.28736669  0.12790511  1
  H  H31  1  0.81980975  0.29422010  0.27606530  1
  H  H32  1  0.68596548  0.34423229  0.29562750  1
  H  H33  1  0.63008535  0.16510538  0.37023476  1
  H  H34  1  0.75956818  0.10902242  0.34363467  1
  H  H35  1  0.60001000  0.24198367  0.54615656  1
  H  H36  1  0.74753945  0.37179340  0.76307646  1
  H  H37  1  0.61740116  0.33571664  0.72474708  1
  H  H38  1  0.77847468  0.17541416  0.80455866  1
  H  H39  1  0.67989579  0.23580877  0.87145197  1
  H  H40  1  0.64879155  0.15219862  0.78068128  1
  H  H41  1  0.92137708  0.29971161  0.65747061  1
  H  H42  1  0.83498978  0.75414462  0.15876013  1
  H  H43  1  0.80466904  0.62702235  0.18779491  1
  H  H44  1  0.71327578  0.71090579  0.13054084  1
  H  H45  1  0.70557116  0.82559371  0.27785831  1
  H  H46  1  0.65491158  0.69167223  0.29959807  1
  H  H47  1  0.83195664  0.63030921  0.36762155  1
  H  H48  1  0.88715736  0.75911854  0.33966272  1
  H  H49  1  0.75999669  0.60029079  0.54770597  1
  H  H50  1  0.63012933  0.74709731  0.77035519  1
  H  H51  1  0.67475159  0.61727102  0.73096294  1
  H  H52  1  0.82036891  0.78516034  0.80864720  1
  H  H53  1  0.76618758  0.68369664  0.87551808  1
  H  H54  1  0.85470508  0.65624781  0.78257103  1
  H  H55  1  0.70331899  0.92572170  0.66385624  1
  Pb  Pb56  1  0.99020537  0.00833172  0.99569791  1
  Pb  Pb57  1  0.98791207  0.49427231  0.99448413  1
  Pb  Pb58  1  0.48455742  0.00604320  0.99629403  1
  Pb  Pb59  1  0.49322311  0.51052311  0.01252709  1
  C  C60  1  0.22488663  0.26615288  0.71487142  1
  C  C61  1  0.31168482  0.28420698  0.63372707  1
  C  C62  1  0.27654115  0.24807384  0.53416940  1
  C  C63  1  0.25123898  0.31184762  0.45229073  1
  C  C64  1  0.21715195  0.25035489  0.37028645  1
  C  C65  1  0.18719967  0.29698818  0.27110245  1
  C  C66  1  0.21649700  0.14028575  0.39203113  1
  C  C67  1  0.25906402  0.77879911  0.71518448  1
  C  C68  1  0.28073577  0.69198892  0.63706621  1
  C  C69  1  0.24591364  0.72689165  0.53543227  1
  C  C70  1  0.31077434  0.75195918  0.45382689  1
  C  C71  1  0.25121188  0.78404261  0.36840893  1
  C  C72  1  0.29984259  0.81598649  0.26969702  1
  C  C73  1  0.14138916  0.78253805  0.38701100  1
  C  C74  1  0.73503539  0.27064523  0.28287016  1
  C  C75  1  0.71625864  0.18429111  0.36478314  1
  C  C76  1  0.75150288  0.22050727  0.46430367  1
  C  C77  1  0.68768123  0.24617467  0.54596220  1
  C  C78  1  0.74814250  0.27878519  0.62890144  1
  C  C79  1  0.70161158  0.30790988  0.72833968  1
  C  C80  1  0.85755800  0.27764095  0.60814496  1
  C  C81  1  0.72789116  0.73912299  0.28433318  1
  C  C82  1  0.81252440  0.71771723  0.36369340  1
  C  C83  1  0.77713840  0.75321995  0.46516929  1
  C  C84  1  0.75473439  0.68886691  0.54804260  1
  C  C85  1  0.72467583  0.75016736  0.63352309  1
  C  C86  1  0.69714906  0.70292111  0.73407392  1
  C  C87  1  0.72458426  0.86067604  0.61338762  1
  S  S88  1  0.25838821  0.11197131  0.50992055  1
  S  S89  1  0.11132171  0.74182622  0.50658323  1
  S  S90  1  0.88636283  0.23608588  0.49008383  1
  S  S91  1  0.76213781  0.88940776  0.49289860  1
  I  I92  1  0.24609407  0.92499303  0.00419957  1
  I  I93  1  0.24125034  0.53983616  0.01584753  1
  I  I94  1  0.73962158  0.02916321  0.00303369  1
  I  I95  1  0.74166197  0.43399121  0.98495219  1
  I  I96  1  0.08027281  0.24961267  0.00721686  1
  I  I97  1  0.96970961  0.75003256  0.00275602  1
  I  I98  1  0.46734179  0.25798151  0.98449784  1
  I  I99  1  0.56871701  0.75229438  0.00292436  1
  I  I100  1  0.96898293  0.00952400  0.76195017  1
  I  I101  1  0.96546108  0.00652692  0.23769812  1
  I  I102  1  0.00828276  0.52374611  0.75141121  1
  I  I103  1  0.95789717  0.49193359  0.22824773  1
  I  I104  1  0.48834959  0.02574192  0.75493223  1
  I  I105  1  0.47258274  0.05898125  0.23040700  1
  I  I106  1  0.46754438  0.51292907  0.77681734  1
  I  I107  1  0.47712955  0.50222732  0.25741454  1
  N  N108  1  0.26532494  0.29937392  0.81339166  1
  N  N109  1  0.28154800  0.29506697  0.19778733  1
  N  N110  1  0.28958701  0.73593517  0.81611200  1
  N  N111  1  0.29714342  0.72449709  0.19677311  1
  N  N112  1  0.70462511  0.22798418  0.18396814  1
  N  N113  1  0.70298793  0.21195981  0.80061851  1
  N  N114  1  0.77186757  0.70591014  0.18469754  1
  N  N115  1  0.79027941  0.70764059  0.80433453  1
