# generated using pymatgen
data_H10PbC5S(I2N)2
_symmetry_space_group_name_H-M   'P 1'
_cell_length_a   12.29668843
_cell_length_b   12.40700756
_cell_length_c   11.26949386
_cell_angle_alpha   90.68500356
_cell_angle_beta   91.64342662
_cell_angle_gamma   89.40192583
_symmetry_Int_Tables_number   1
_chemical_formula_structural   H10PbC5S(I2N)2
_chemical_formula_sum   'H40 Pb4 C20 S4 I16 N8'
_cell_volume   1718.41382592
_cell_formula_units_Z   4
loop_
 _symmetry_equiv_pos_site_id
 _symmetry_equiv_pos_as_xyz
  1  'x, y, z'
loop_
 _atom_site_type_symbol
 _atom_site_label
 _atom_site_symmetry_multiplicity
 _atom_site_fract_x
 _atom_site_fract_y
 _atom_site_fract_z
 _atom_site_occupancy
  H  H0  1  0.38415471  0.17528575  0.72376147  1
  H  H1  1  0.34250149  0.30489732  0.74126594  1
  H  H2  1  0.30167754  0.20661684  0.83290660  1
  H  H3  1  0.20951084  0.11361192  0.66412590  1
  H  H4  1  0.14998950  0.23819626  0.70953810  1
  H  H5  1  0.20359316  0.41887284  0.58736632  1
  H  H6  1  0.31319151  0.29126808  0.17309240  1
  H  H7  1  0.38245259  0.18193228  0.23293646  1
  H  H8  1  0.25306896  0.17294322  0.18345922  1
  H  H9  1  0.27267648  0.10027182  0.43491900  1
  H  H10  1  0.16793764  0.62654238  0.72911701  1
  H  H11  1  0.30110493  0.65314389  0.74502235  1
  H  H12  1  0.21026850  0.70794890  0.83930501  1
  H  H13  1  0.11878471  0.80310371  0.67138611  1
  H  H14  1  0.24821899  0.85211857  0.71944428  1
  H  H15  1  0.42583025  0.78704353  0.58991689  1
  H  H16  1  0.26888414  0.67377055  0.17686964  1
  H  H17  1  0.14913754  0.63464807  0.23815738  1
  H  H18  1  0.16591642  0.75941717  0.19015931  1
  H  H19  1  0.09594261  0.73355911  0.44635487  1
  H  H20  1  0.82066722  0.12616478  0.27872039  1
  H  H21  1  0.69384172  0.17369650  0.25005080  1
  H  H22  1  0.79999590  0.21136301  0.16722798  1
  H  H23  1  0.88889007  0.29761880  0.33859573  1
  H  H24  1  0.76418733  0.35992182  0.29117379  1
  H  H25  1  0.57936344  0.30228251  0.41034952  1
  H  H26  1  0.71478193  0.19989408  0.82992714  1
  H  H27  1  0.82444574  0.13072311  0.77345805  1
  H  H28  1  0.83424729  0.25946691  0.81501338  1
  H  H29  1  0.90321624  0.23598551  0.56564478  1
  H  H30  1  0.86804958  0.82834994  0.27681963  1
  H  H31  1  0.83301928  0.69954264  0.24711071  1
  H  H32  1  0.78618322  0.80160323  0.16025061  1
  H  H33  1  0.68800665  0.88267923  0.32269355  1
  H  H34  1  0.63800859  0.75492162  0.27548336  1
  H  H35  1  0.69507473  0.57973390  0.41145653  1
  H  H36  1  0.79030919  0.73384669  0.82909548  1
  H  H37  1  0.85235120  0.84376856  0.76999326  1
  H  H38  1  0.71988687  0.84596809  0.79714257  1
  H  H39  1  0.75860163  0.90534065  0.54849884  1
  Pb  Pb40  1  -0.00048100  1.00112592  0.02014911  1
  Pb  Pb41  1  0.00142552  0.50045090  -0.00043192  1
  Pb  Pb42  1  0.48863608  0.98089257  0.00310702  1
  Pb  Pb43  1  0.51300620  0.49420192  0.98390639  1
  C  C44  1  0.22007405  0.20126678  0.66572930  1
  C  C45  1  0.23366422  0.24659999  0.54457418  1
  C  C46  1  0.22469134  0.35598000  0.52401102  1
  C  C47  1  0.27375763  0.25539170  0.34637040  1
  C  C48  1  0.26194668  0.18743472  0.44043815  1
  C  C49  1  0.20634271  0.78491590  0.67402844  1
  C  C50  1  0.24913386  0.76596452  0.55228237  1
  C  C51  1  0.35864653  0.76893896  0.52831838  1
  C  C52  1  0.24764779  0.72562266  0.35191138  1
  C  C53  1  0.18416156  0.74063010  0.44919444  1
  C  C54  1  0.80020793  0.28859653  0.33447117  1
  C  C55  1  0.75410804  0.27255044  0.45443530  1
  C  C56  1  0.64383235  0.28096814  0.47414913  1
  C  C57  1  0.74789268  0.23436213  0.65391203  1
  C  C58  1  0.81508357  0.24553060  0.55958750  1
  C  C59  1  0.70583908  0.79578496  0.32207079  1
  C  C60  1  0.72353591  0.75378311  0.44523342  1
  C  C61  1  0.71544050  0.64580823  0.47224812  1
  C  C62  1  0.75908659  0.75574277  0.64727070  1
  C  C63  1  0.74919351  0.81816386  0.54763642  1
  S  S64  1  0.25150333  0.38865970  0.38199239  1
  S  S65  1  0.38416934  0.74168737  0.38325264  1
  S  S66  1  0.61307800  0.25648671  0.61725991  1
  S  S67  1  0.73782185  0.62108554  0.61918606  1
  I  I68  1  0.24404350  0.06347598  0.98480882  1
  I  I69  1  0.25546629  0.43950425  0.03225737  1
  I  I70  1  0.74669417  0.96114431  0.01562923  1
  I  I71  1  0.75338486  0.59328138  0.97688138  1
  I  I72  1  0.94813099  0.25455312  0.02271781  1
  I  I73  1  0.04862329  0.75522755  0.98343789  1
  I  I74  1  0.56014729  0.24033573  0.96406433  1
  I  I75  1  0.41308745  0.73992782  0.02120532  1
  I  I76  1  0.97128096  1.00052531  0.72897727  1
  I  I77  1  0.99314816  0.99101359  0.30753364  1
  I  I78  1  0.01583790  0.48773357  0.72088109  1
  I  I79  1  0.97901400  0.54370606  0.28572990  1
  I  I80  1  0.49835759  0.97872858  0.72393775  1
  I  I81  1  0.51850961  0.04983291  0.28607677  1
  I  I82  1  0.43597463  0.49943217  0.70520461  1
  I  I83  1  0.53614425  0.47886223  0.25741519  1
  N  N84  1  0.31854259  0.22447903  0.74546984  1
  N  N85  1  0.30691641  0.22442432  0.22837853  1
  N  N86  1  0.22336339  0.68760146  0.75134605  1
  N  N87  1  0.20714502  0.69706947  0.23356942  1
  N  N88  1  0.77587618  0.19398572  0.25271502  1
  N  N89  1  0.78138183  0.20490240  0.77376114  1
  N  N90  1  0.80430360  0.77887540  0.24713170  1
  N  N91  1  0.78178395  0.79611302  0.76676528  1
