# generated using pymatgen
data_H20PbC18S(I2N)2
_symmetry_space_group_name_H-M   'P 1'
_cell_length_a   12.43066753
_cell_length_b   12.22818223
_cell_length_c   20.68976112
_cell_angle_alpha   89.46608130
_cell_angle_beta   89.32585419
_cell_angle_gamma   89.97870560
_symmetry_Int_Tables_number   1
_chemical_formula_structural   H20PbC18S(I2N)2
_chemical_formula_sum   'H80 Pb4 C72 S4 I16 N8'
_cell_volume   3144.58179244
_cell_formula_units_Z   4
loop_
 _symmetry_equiv_pos_site_id
 _symmetry_equiv_pos_as_xyz
  1  'x, y, z'
loop_
 _atom_site_type_symbol
 _atom_site_label
 _atom_site_symmetry_multiplicity
 _atom_site_fract_x
 _atom_site_fract_y
 _atom_site_fract_z
 _atom_site_occupancy
  H  H0  1  0.22278652  0.42032581  0.85543746  1
  H  H1  1  0.26669518  0.33296344  0.91187097  1
  H  H2  1  0.33966026  0.35185730  0.84424267  1
  H  H3  1  0.22560751  0.17813749  0.85167348  1
  H  H4  1  0.11379936  0.26867245  0.84851567  1
  H  H5  1  0.32183642  0.12775024  0.75607622  1
  H  H6  1  0.33430989  0.12518916  0.63636615  1
  H  H7  1  0.20001471  0.07645645  0.55037357  1
  H  H8  1  0.20041360  0.06263591  0.43133151  1
  H  H9  1  0.07712653  0.11526916  0.33532381  1
  H  H10  1  0.35925948  0.20666931  0.14805230  1
  H  H11  1  0.39780084  0.32922396  0.18762825  1
  H  H12  1  0.31023899  0.38003686  0.09366793  1
  H  H13  1  0.20647626  0.29613656  0.10376039  1
  H  H14  1  0.21657550  0.40370142  0.15173634  1
  H  H15  1  0.35563799  0.32909273  0.31038296  1
  H  H16  1  0.24809841  0.41112247  0.41483651  1
  H  H17  1  0.24963983  0.42458753  0.53409023  1
  H  H18  1  0.10683287  0.39017032  0.62597495  1
  H  H19  1  0.09244957  0.39060864  0.74556689  1
  H  H20  1  0.42666876  0.76670170  0.84481178  1
  H  H21  1  0.35171217  0.73729642  0.90960466  1
  H  H22  1  0.35191096  0.65369907  0.84658325  1
  H  H23  1  0.18719206  0.76783151  0.85272852  1
  H  H24  1  0.27331171  0.88435671  0.84754567  1
  H  H25  1  0.13227373  0.67635252  0.75667856  1
  H  H26  1  0.12981548  0.66485307  0.63701157  1
  H  H27  1  0.08228242  0.80177178  0.55016940  1
  H  H28  1  0.06814006  0.79992966  0.43103879  1
  H  H29  1  0.10975937  0.91608289  0.33327852  1
  H  H30  1  0.21622435  0.63876156  0.14886601  1
  H  H31  1  0.33501010  0.59923931  0.19017223  1
  H  H32  1  0.38513036  0.68934103  0.09523771  1
  H  H33  1  0.30447959  0.79664986  0.10600256  1
  H  H34  1  0.41120682  0.78224745  0.15323537  1
  H  H35  1  0.33750251  0.64698731  0.31162097  1
  H  H36  1  0.41076607  0.75155581  0.41441876  1
  H  H37  1  0.42456528  0.75102295  0.53359213  1
  H  H38  1  0.39063384  0.89553248  0.62418889  1
  H  H39  1  0.39222000  0.90793429  0.74398822  1
  H  H40  1  0.58388135  0.23337018  0.15202807  1
  H  H41  1  0.66835844  0.20885067  0.09000881  1
  H  H42  1  0.67357530  0.13314540  0.15650550  1
  H  H43  1  0.82040673  0.26906056  0.14808332  1
  H  H44  1  0.71855124  0.37227447  0.14902406  1
  H  H45  1  0.87171091  0.17338914  0.24497228  1
  H  H46  1  0.87387075  0.16562686  0.36489182  1
  H  H47  1  0.91981211  0.30142723  0.44928307  1
  H  H48  1  0.93328101  0.29997258  0.56842303  1
  H  H49  1  0.88550059  0.42073441  0.66563415  1
  H  H50  1  0.79569447  0.12946507  0.84971161  1
  H  H51  1  0.67653463  0.08742796  0.81026616  1
  H  H52  1  0.64521681  0.17746251  0.91129220  1
  H  H53  1  0.69694154  0.29472804  0.88414816  1
  H  H54  1  0.58501995  0.24639904  0.85022969  1
  H  H55  1  0.67075920  0.14005626  0.68776333  1
  H  H56  1  0.59064721  0.25180414  0.58514443  1
  H  H57  1  0.57736119  0.25111141  0.46583775  1
  H  H58  1  0.60891032  0.39198269  0.37265157  1
  H  H59  1  0.60706494  0.40028271  0.25295569  1
  H  H60  1  0.75274380  0.57453613  0.15347818  1
  H  H61  1  0.78958528  0.65857806  0.09211516  1
  H  H62  1  0.85933270  0.65596561  0.15974219  1
  H  H63  1  0.73598144  0.81679713  0.14822325  1
  H  H64  1  0.62831546  0.72016168  0.15019555  1
  H  H65  1  0.82835567  0.86790337  0.24448223  1
  H  H66  1  0.83603796  0.87009625  0.36416267  1
  H  H67  1  0.69727062  0.92031253  0.45008878  1
  H  H68  1  0.69867493  0.93438615  0.56931835  1
  H  H69  1  0.57843884  0.88229523  0.66776302  1
  H  H70  1  0.86350415  0.79535819  0.84948404  1
  H  H71  1  0.91103718  0.67907050  0.80745968  1
  H  H72  1  0.82753708  0.63018088  0.90721791  1
  H  H73  1  0.71092844  0.68715493  0.88866131  1
  H  H74  1  0.75297001  0.57802487  0.84737045  1
  H  H75  1  0.85846535  0.66966389  0.68663652  1
  H  H76  1  0.74833351  0.58610120  0.58499277  1
  H  H77  1  0.74851969  0.57242805  0.46575882  1
  H  H78  1  0.60306175  0.60981567  0.37454728  1
  H  H79  1  0.59355811  0.60938317  0.25477504  1
  Pb  Pb80  1  -0.00116546  0.99528258  0.00444897  1
  Pb  Pb81  1  0.02336912  0.50351085  0.01022732  1
  Pb  Pb82  1  0.49629667  0.99141079  0.00738093  1
  Pb  Pb83  1  0.52458756  0.48548777  0.98273573  1
  C  C84  1  0.19682226  0.25591718  0.83163441  1
  C  C85  1  0.20652559  0.25929016  0.75902422  1
  C  C86  1  0.27466144  0.18539235  0.72742333  1
  C  C87  1  0.28154921  0.18406055  0.66018263  1
  C  C88  1  0.22163168  0.25763557  0.62244705  1
  C  C89  1  0.22429208  0.25158346  0.55100626  1
  C  C90  1  0.21121029  0.15001895  0.52076599  1
  C  C91  1  0.20988064  0.14244494  0.45374472  1
  C  C92  1  0.22254817  0.23593713  0.41422793  1
  C  C93  1  0.21793755  0.22516750  0.34338751  1
  C  C94  1  0.14342562  0.15979149  0.31286466  1
  C  C95  1  0.26834440  0.24558430  0.23471978  1
  C  C96  1  0.32907391  0.27740578  0.17529568  1
  C  C97  1  0.28911245  0.27577511  0.29739603  1
  C  C98  1  0.23801771  0.33727506  0.44438057  1
  C  C99  1  0.23788499  0.34507278  0.51164150  1
  C  C100  1  0.15536893  0.33345430  0.65446443  1
  C  C101  1  0.14701648  0.33355617  0.72166850  1
  C  C102  1  0.26148735  0.80026879  0.83097479  1
  C  C103  1  0.26236931  0.79256926  0.75844014  1
  C  C104  1  0.18878134  0.72469953  0.72751411  1
  C  C105  1  0.18741532  0.71853801  0.66035458  1
  C  C106  1  0.26015443  0.77939055  0.62198155  1
  C  C107  1  0.25439263  0.77683693  0.55062379  1
  C  C108  1  0.15439837  0.79006116  0.52046872  1
  C  C109  1  0.14664741  0.79059486  0.45349040  1
  C  C110  1  0.23834423  0.77712225  0.41385252  1
  C  C111  1  0.22703543  0.78049487  0.34306397  1
  C  C112  1  0.15778850  0.85161708  0.31168630  1
  C  C113  1  0.25028885  0.73010427  0.23504649  1
  C  C114  1  0.28475105  0.66933692  0.17658549  1
  C  C115  1  0.28097610  0.71114924  0.29794333  1
  C  C116  1  0.33821708  0.76190101  0.44398798  1
  C  C117  1  0.34619196  0.76269459  0.51121410  1
  C  C118  1  0.33509925  0.84591505  0.65333893  1
  C  C119  1  0.33584699  0.85298021  0.72048759  1
  C  C120  1  0.74161616  0.29175927  0.16811062  1
  C  C121  1  0.73971032  0.28740572  0.24083501  1
  C  C122  1  0.81455734  0.22185383  0.27316249  1
  C  C123  1  0.81547155  0.21758846  0.34037292  1
  C  C124  1  0.74165467  0.27823592  0.37743234  1
  C  C125  1  0.74745930  0.27705310  0.44882639  1
  C  C126  1  0.84740442  0.29027145  0.47893269  1
  C  C127  1  0.85484354  0.29108131  0.54593369  1
  C  C128  1  0.76291935  0.27777741  0.58550461  1
  C  C129  1  0.77397120  0.28047206  0.65631025  1
  C  C130  1  0.83971662  0.35406875  0.68741657  1
  C  C131  1  0.75506923  0.22339894  0.76418323  1
  C  C132  1  0.72528177  0.15879744  0.82280676  1
  C  C133  1  0.72422587  0.20639898  0.70142454  1
  C  C134  1  0.66317487  0.26243932  0.55549117  1
  C  C135  1  0.65551145  0.26309068  0.48826135  1
  C  C136  1  0.66548933  0.34246664  0.34473364  1
  C  C137  1  0.66481965  0.34735412  0.27740390  1
  C  C138  1  0.70828976  0.73874030  0.16897069  1
  C  C139  1  0.71082800  0.73843913  0.24163295  1
  C  C140  1  0.77891326  0.81124252  0.27314964  1
  C  C141  1  0.78282558  0.81250054  0.34032245  1
  C  C142  1  0.72022129  0.73994168  0.37793688  1
  C  C143  1  0.72203812  0.74537423  0.44933709  1
  C  C144  1  0.70879673  0.84696107  0.47966117  1
  C  C145  1  0.70823822  0.85466178  0.54667917  1
  C  C146  1  0.72208480  0.76128608  0.58591675  1
  C  C147  1  0.71911134  0.77246593  0.65678855  1
  C  C148  1  0.64536798  0.83803129  0.68876811  1
  C  C149  1  0.77351387  0.75260715  0.76426575  1
  C  C150  1  0.83809657  0.72360389  0.82173922  1
  C  C151  1  0.79193285  0.72250086  0.70113075  1
  C  C152  1  0.73749113  0.65985792  0.55561576  1
  C  C153  1  0.73645111  0.65190905  0.48838298  1
  C  C154  1  0.65336186  0.66572467  0.34602067  1
  C  C155  1  0.64797709  0.66566140  0.27876808  1
  S  S156  1  0.16080168  0.15716651  0.23101293  1
  S  S157  1  0.15645078  0.83359658  0.23010826  1
  S  S158  1  0.84383009  0.33163912  0.76895298  1
  S  S159  1  0.66549328  0.84085845  0.77028215  1
  I  I160  1  0.24435591  0.92497919  0.02086516  1
  I  I161  1  0.27418631  0.56635540  0.99961443  1
  I  I162  1  0.73738820  0.07040743  -0.00092608  1
  I  I163  1  0.77037310  0.41985349  0.98606800  1
  I  I164  1  0.07767565  0.24984234  0.01079276  1
  I  I165  1  0.91628080  0.74339510  0.00466207  1
  I  I166  1  0.42746179  0.24718312  0.00057489  1
  I  I167  1  0.57269260  0.74388485  0.97913688  1
  I  I168  1  1.00150885  0.99698699  0.85276634  1
  I  I169  1  0.92855145  0.00399125  0.15473050  1
  I  I170  1  0.04997802  0.52742000  0.85558831  1
  I  I171  1  0.02244875  0.50030318  0.16562062  1
  I  I172  1  0.46029789  0.02521102  0.85453623  1
  I  I173  1  0.50468508  0.97682557  0.16362215  1
  I  I174  1  0.51579358  0.48243321  0.82646090  1
  I  I175  1  0.52449788  0.49970806  0.13649324  1
  N  N176  1  0.26181493  0.34543377  0.86243704  1
  N  N177  1  0.26195507  0.34358092  0.12887566  1
  N  N178  1  0.35331428  0.73516305  0.85956993  1
  N  N179  1  0.35106703  0.73825585  0.13053771  1
  N  N180  1  0.66186103  0.21267689  0.14018760  1
  N  N181  1  0.65813047  0.22442523  0.86943919  1
  N  N182  1  0.78168834  0.65139163  0.14219221  1
  N  N183  1  0.77830232  0.64942592  0.86843649  1
