# generated using pymatgen
data_H14PbC7S(I2N)2
_symmetry_space_group_name_H-M   'P 1'
_cell_length_a   12.81766385
_cell_length_b   12.82507648
_cell_length_c   12.29570885
_cell_angle_alpha   88.27737600
_cell_angle_beta   88.35814440
_cell_angle_gamma   91.05275690
_symmetry_Int_Tables_number   1
_chemical_formula_structural   H14PbC7S(I2N)2
_chemical_formula_sum   'H56 Pb4 C28 S4 I16 N8'
_cell_volume   2019.14390049
_cell_formula_units_Z   4
loop_
 _symmetry_equiv_pos_site_id
 _symmetry_equiv_pos_as_xyz
  1  'x, y, z'
loop_
 _atom_site_type_symbol
 _atom_site_label
 _atom_site_symmetry_multiplicity
 _atom_site_fract_x
 _atom_site_fract_y
 _atom_site_fract_z
 _atom_site_occupancy
  H  H0  1  0.40951076  0.33945843  0.65129486  1
  H  H1  1  0.36216362  0.36304943  0.78489462  1
  H  H2  1  0.29219459  0.40914187  0.67127090  1
  H  H3  1  0.32179117  0.17979839  0.74427734  1
  H  H4  1  0.13197212  0.31210560  0.74320409  1
  H  H5  1  0.13447064  0.18220645  0.77337627  1
  H  H6  1  0.19573621  0.26971538  0.85059935  1
  H  H7  1  0.28201570  0.03760976  0.61221452  1
  H  H8  1  0.09275383  0.23394537  0.28442746  1
  H  H9  1  0.16446005  0.34868639  0.31159314  1
  H  H10  1  0.22997427  0.17111288  0.17450511  1
  H  H11  1  0.21883770  0.29843443  0.14169805  1
  H  H12  1  0.31581486  0.25909133  0.21859623  1
  H  H13  1  0.21657677  0.35676711  0.50478287  1
  H  H14  1  0.33066668  0.58806736  0.65153611  1
  H  H15  1  0.35434106  0.62282440  0.78731138  1
  H  H16  1  0.40570996  0.70199528  0.67702988  1
  H  H17  1  0.17418845  0.66837429  0.74502247  1
  H  H18  1  0.31683925  0.85536656  0.75489162  1
  H  H19  1  0.18639087  0.85719470  0.77670546  1
  H  H20  1  0.26230133  0.78433222  0.85795738  1
  H  H21  1  0.03392477  0.72837793  0.61931111  1
  H  H22  1  0.22439399  0.91792619  0.27530640  1
  H  H23  1  0.34585428  0.86803382  0.31679530  1
  H  H24  1  0.18992416  0.76733993  0.17650025  1
  H  H25  1  0.31666647  0.79476347  0.15324322  1
  H  H26  1  0.28144366  0.69831740  0.24014040  1
  H  H27  1  0.35633016  0.78611776  0.50621015  1
  H  H28  1  0.65489536  0.09716871  0.35117917  1
  H  H29  1  0.63335709  0.14111613  0.21615256  1
  H  H30  1  0.58924214  0.21606220  0.32688759  1
  H  H31  1  0.81718657  0.17662395  0.25472235  1
  H  H32  1  0.69505956  0.37304901  0.25603744  1
  H  H33  1  0.82278540  0.36201823  0.21826417  1
  H  H34  1  0.72706131  0.30374713  0.14808421  1
  H  H35  1  0.95877497  0.20282820  0.39061215  1
  H  H36  1  0.76820204  0.40304256  0.71490833  1
  H  H37  1  0.65065336  0.33734911  0.68403785  1
  H  H38  1  0.81895761  0.26242339  0.82842305  1
  H  H39  1  0.69149560  0.27872607  0.85526487  1
  H  H40  1  0.73020331  0.17995286  0.78017673  1
  H  H41  1  0.64469318  0.29202778  0.49087937  1
  H  H42  1  0.92432805  0.67701802  0.34770029  1
  H  H43  1  0.88548859  0.64763389  0.21489723  1
  H  H44  1  0.81310891  0.59567654  0.32963650  1
  H  H45  1  0.82976561  0.82568202  0.25059763  1
  H  H46  1  0.65155114  0.67143574  0.26150902  1
  H  H47  1  0.64483248  0.79801471  0.21949730  1
  H  H48  1  0.71941024  0.71100002  0.15074677  1
  H  H49  1  0.79545000  0.96363981  0.38668864  1
  H  H50  1  0.58688227  0.77579546  0.72200201  1
  H  H51  1  0.63263563  0.65338727  0.67865440  1
  H  H52  1  0.73755929  0.80271209  0.82273801  1
  H  H53  1  0.70333301  0.67610688  0.84542772  1
  H  H54  1  0.80296961  0.70729459  0.76097935  1
  H  H55  1  0.70704817  0.64463176  0.48930172  1
  Pb  Pb56  1  0.98968892  0.00384793  0.99323691  1
  Pb  Pb57  1  0.00716802  0.51098143  0.98635210  1
  Pb  Pb58  1  0.49699891  -0.00229705  0.98821461  1
  Pb  Pb59  1  0.49852941  0.49908707  0.03678577  1
  C  C60  1  0.33862407  0.34428872  0.70271905  1
  C  C61  1  0.27818331  0.24155413  0.70250937  1
  C  C62  1  0.25346857  0.20639249  0.59049346  1
  C  C63  1  0.25905937  0.10353313  0.56151538  1
  C  C64  1  0.20891091  0.21841221  0.40774472  1
  C  C65  1  0.17034861  0.26404502  0.30461217  1
  C  C66  1  0.22530090  0.27249575  0.50127930  1
  C  C67  1  0.33801379  0.65393381  0.70574952  1
  C  C68  1  0.23807072  0.71569410  0.70598089  1
  C  C69  1  0.20450683  0.75006603  0.59440282  1
  C  C70  1  0.10074503  0.75144887  0.56730008  1
  C  C71  1  0.21712750  0.80652172  0.41161476  1
  C  C72  1  0.26318078  0.84802814  0.30653760  1
  C  C73  1  0.27135743  0.78135264  0.50415650  1
  C  C74  1  0.65259854  0.16664965  0.29740817  1
  C  C75  1  0.75752227  0.22331846  0.29578788  1
  C  C76  1  0.79341932  0.24632980  0.40807949  1
  C  C77  1  0.89455395  0.23160267  0.43986064  1
  C  C78  1  0.78066341  0.28641156  0.59207898  1
  C  C79  1  0.73450195  0.32705313  0.69410758  1
  C  C80  1  0.72781753  0.27690438  0.49652988  1
  C  C81  1  0.85670885  0.66483379  0.29700990  1
  C  C82  1  0.78884048  0.76039260  0.29468622  1
  C  C83  1  0.75665772  0.79531537  0.40612732  1
  C  C84  1  0.76590034  0.89768411  0.43675539  1
  C  C85  1  0.70158094  0.78162954  0.58899111  1
  C  C86  1  0.65584348  0.73466454  0.69171927  1
  C  C87  1  0.72029494  0.72864599  0.49444687  1
  S  S88  1  0.22728154  0.08646999  0.42979243  1
  S  S89  1  0.08405859  0.79283369  0.43629038  1
  S  S90  1  0.91098290  0.25761115  0.57336390  1
  S  S91  1  0.72923070  0.91349073  0.56945076  1
  I  I92  1  0.25207918  0.03426660  0.02834875  1
  I  I93  1  0.25565656  0.44276387  0.99766821  1
  I  I94  1  0.74800518  0.96732725  0.92970511  1
  I  I95  1  0.76124152  0.55522807  0.01575142  1
  I  I96  1  0.95764639  0.25012899  0.96949609  1
  I  I97  1  0.05813600  0.75241423  0.02112475  1
  I  I98  1  0.54790555  0.24660250  0.01610509  1
  I  I99  1  0.44551708  0.74095519  0.99101602  1
  I  I100  1  0.04947645  0.99779396  0.74049241  1
  I  I101  1  0.99064274  0.01767334  0.24836180  1
  I  I102  1  0.01532969  0.49387717  0.72339068  1
  I  I103  1  0.99641354  0.45166029  0.23400046  1
  I  I104  1  0.47185192  0.98150121  0.72963696  1
  I  I105  1  0.52385305  0.93578795  0.23683721  1
  I  I106  1  0.54947966  0.49486774  0.79477918  1
  I  I107  1  0.54259161  0.49832003  0.30744066  1
  N  N108  1  0.17839309  0.25182604  0.77158771  1
  N  N109  1  0.23795667  0.24613124  0.20485090  1
  N  N110  1  0.25132639  0.80889707  0.77832419  1
  N  N111  1  0.26188103  0.77208981  0.21427294  1
  N  N112  1  0.75054385  0.32214357  0.22506916  1
  N  N113  1  0.74492907  0.25758941  0.79446452  1
  N  N114  1  0.69505539  0.73444603  0.22727755  1
  N  N115  1  0.72984451  0.73048844  0.78560466  1
