# generated using pymatgen
data_H11PbC5SI4N3
_symmetry_space_group_name_H-M   'P 1'
_cell_length_a   12.42467035
_cell_length_b   12.26332987
_cell_length_c   11.97086566
_cell_angle_alpha   88.39896020
_cell_angle_beta   89.02278897
_cell_angle_gamma   88.24729742
_symmetry_Int_Tables_number   1
_chemical_formula_structural   H11PbC5SI4N3
_chemical_formula_sum   'H44 Pb4 C20 S4 I16 N12'
_cell_volume   1822.17018835
_cell_formula_units_Z   4
loop_
 _symmetry_equiv_pos_site_id
 _symmetry_equiv_pos_as_xyz
  1  'x, y, z'
loop_
 _atom_site_type_symbol
 _atom_site_label
 _atom_site_symmetry_multiplicity
 _atom_site_fract_x
 _atom_site_fract_y
 _atom_site_fract_z
 _atom_site_occupancy
  H  H0  1  0.27677243  0.16779241  0.79342036  1
  H  H1  1  0.19058472  0.25238207  0.85904643  1
  H  H2  1  0.14711277  0.16005447  0.76797212  1
  H  H3  1  0.28208373  0.35464601  0.71630523  1
  H  H4  1  0.14274319  0.34771073  0.68871280  1
  H  H5  1  0.24955191  0.38520000  0.46184807  1
  H  H6  1  0.32827654  0.32131705  0.25666728  1
  H  H7  1  0.34456806  0.17824138  0.23573949  1
  H  H8  1  0.13406789  0.30479878  0.24291206  1
  H  H9  1  0.14695563  0.16795746  0.22783974  1
  H  H10  1  0.19822097  0.25602746  0.13063002  1
  H  H11  1  0.19090464  0.72486510  0.81194700  1
  H  H12  1  0.26620909  0.82273469  0.85895829  1
  H  H13  1  0.16606067  0.85292346  0.76819132  1
  H  H14  1  0.36686403  0.71826674  0.72021282  1
  H  H15  1  0.34951255  0.85888261  0.68377346  1
  H  H16  1  0.38599177  0.75105156  0.46580767  1
  H  H17  1  0.31679310  0.65813179  0.26561573  1
  H  H18  1  0.17545024  0.66636494  0.24375835  1
  H  H19  1  0.32466082  0.85433301  0.24392775  1
  H  H20  1  0.18854101  0.86892482  0.23967745  1
  H  H21  1  0.25710109  0.80553193  0.13737846  1
  H  H22  1  0.83148349  0.21307037  0.20302514  1
  H  H23  1  0.75492255  0.30896614  0.13916362  1
  H  H24  1  0.84784262  0.34227737  0.23420622  1
  H  H25  1  0.64976641  0.21282406  0.27987302  1
  H  H26  1  0.65814980  0.35395485  0.30450079  1
  H  H27  1  0.61673791  0.24899701  0.53347428  1
  H  H28  1  0.67816699  0.16999244  0.74254687  1
  H  H29  1  0.81880360  0.15592030  0.76701004  1
  H  H30  1  0.69158692  0.36801114  0.75142911  1
  H  H31  1  0.82601835  0.35755117  0.76880727  1
  H  H32  1  0.73997989  0.30459310  0.86591455  1
  H  H33  1  0.76497585  0.81451458  0.19312752  1
  H  H34  1  0.67750853  0.72848372  0.14460297  1
  H  H35  1  0.63717888  0.82682181  0.23496217  1
  H  H36  1  0.78520701  0.63302421  0.28187580  1
  H  H37  1  0.64731845  0.64299748  0.32266574  1
  H  H38  1  0.75164337  0.61324713  0.54008964  1
  H  H39  1  0.84162807  0.68275430  0.73811543  1
  H  H40  1  0.83982385  0.82666408  0.75723615  1
  H  H41  1  0.64760911  0.68415913  0.75535724  1
  H  H42  1  0.64053195  0.82278019  0.76128859  1
  H  H43  1  0.69905327  0.74785819  0.86358050  1
  Pb  Pb44  1  0.99794277  0.99133005  0.00909144  1
  Pb  Pb45  1  0.99266916  0.50221930  0.99509100  1
  Pb  Pb46  1  0.50644278  0.00737918  0.99417055  1
  Pb  Pb47  1  0.48840965  0.49498240  0.99942729  1
  C  C48  1  0.21890906  0.29930694  0.69232619  1
  C  C49  1  0.24464892  0.24458370  0.58433897  1
  C  C50  1  0.25636431  0.29743116  0.47816822  1
  C  C51  1  0.27858640  0.22135873  0.39701537  1
  C  C52  1  0.29259953  0.24149151  0.27402038  1
  C  C53  1  0.30694864  0.78178718  0.69481003  1
  C  C54  1  0.25030351  0.75344280  0.59042945  1
  C  C55  1  0.30037477  0.74269664  0.48386900  1
  C  C56  1  0.22490036  0.71967954  0.40499154  1
  C  C57  1  0.24258706  0.70674671  0.28233298  1
  C  C58  1  0.70499931  0.27619811  0.30393588  1
  C  C59  1  0.75691166  0.25053714  0.41409400  1
  C  C60  1  0.70340729  0.24109040  0.51934771  1
  C  C61  1  0.77732839  0.21939449  0.60286232  1
  C  C62  1  0.75636854  0.20724093  0.72573250  1
  C  C63  1  0.72056105  0.69023567  0.30906787  1
  C  C64  1  0.74967526  0.74908355  0.41187847  1
  C  C65  1  0.76068861  0.69961345  0.51964305  1
  C  C66  1  0.78478572  0.77702398  0.59655235  1
  C  C67  1  0.79719196  0.76003767  0.71967983  1
  S  S68  1  0.28372580  0.09376899  0.46005540  1
  S  S69  1  0.10124706  0.71176358  0.47045472  1
  S  S70  1  0.90378749  0.21151598  0.54298892  1
  S  S71  1  0.79337048  0.90133539  0.52785549  1
  I  I72  1  0.25341815  0.03584591  1.00313831  1
  I  I73  1  0.24677016  0.42082872  0.98132389  1
  I  I74  1  0.75530779  0.93581849  0.98763776  1
  I  I75  1  0.74223248  0.55441023  0.02116848  1
  I  I76  1  0.95940598  0.24553303  0.98354844  1
  I  I77  1  0.06955718  0.74038890  0.02053387  1
  I  I78  1  0.58611930  0.25020219  0.01432332  1
  I  I79  1  0.45123041  0.75255816  0.98809660  1
  I  I80  1  0.02081958  0.99718564  0.74096213  1
  I  I81  1  0.02966320  0.00352623  0.27498212  1
  I  I82  1  0.97000691  0.49371946  0.72771210  1
  I  I83  1  0.00217379  0.47155634  0.26638730  1
  I  I84  1  0.51945292  0.00360340  0.72900729  1
  I  I85  1  0.49292470  0.96827476  0.26841359  1
  I  I86  1  0.53880376  0.51145056  0.72165907  1
  I  I87  1  0.47828108  0.49873559  0.26323902  1
  N  N88  1  0.20740639  0.21524650  0.78365320  1
  N  N89  1  0.18623148  0.24197072  0.21569953  1
  N  N90  1  0.25712567  0.13616927  0.58634225  1
  N  N91  1  0.22827243  0.79610385  0.78888149  1
  N  N92  1  0.25413657  0.81558049  0.22288316  1
  N  N93  1  0.14448666  0.73839547  0.59526112  1
  N  N94  1  0.78959598  0.28581896  0.21460760  1
  N  N95  1  0.75391407  0.31594989  0.78079387  1
  N  N96  1  0.86367445  0.23658098  0.41502204  1
  N  N97  1  0.69877052  0.76942055  0.21512511  1
  N  N98  1  0.68905964  0.75318315  0.77795131  1
  N  N99  1  0.76544836  0.85607730  0.40422056  1
