# generated using pymatgen
data_H14PbC7S(I2N)2
_symmetry_space_group_name_H-M   'P 1'
_cell_length_a   12.48415423
_cell_length_b   12.30403120
_cell_length_c   13.43898478
_cell_angle_alpha   90.78345717
_cell_angle_beta   91.24927534
_cell_angle_gamma   88.79628633
_symmetry_Int_Tables_number   1
_chemical_formula_structural   H14PbC7S(I2N)2
_chemical_formula_sum   'H56 Pb4 C28 S4 I16 N8'
_cell_volume   2063.17447758
_cell_formula_units_Z   4
loop_
 _symmetry_equiv_pos_site_id
 _symmetry_equiv_pos_as_xyz
  1  'x, y, z'
loop_
 _atom_site_type_symbol
 _atom_site_label
 _atom_site_symmetry_multiplicity
 _atom_site_fract_x
 _atom_site_fract_y
 _atom_site_fract_z
 _atom_site_occupancy
  H  H0  1  0.30461482  0.12705697  0.81426893  1
  H  H1  1  0.33304744  0.25452417  0.84220514  1
  H  H2  1  0.21159003  0.21075366  0.86895614  1
  H  H3  1  0.20196095  0.32297574  0.72042527  1
  H  H4  1  0.16066606  0.18646736  0.69731960  1
  H  H5  1  0.34494802  0.13669058  0.63787335  1
  H  H6  1  0.38788302  0.27017461  0.66476051  1
  H  H7  1  0.28660505  0.43618059  0.55405194  1
  H  H8  1  0.12793373  0.21853827  0.23837131  1
  H  H9  1  0.19893769  0.09951764  0.27576881  1
  H  H10  1  0.30429099  0.28947272  0.18549297  1
  H  H11  1  0.26126705  0.18007582  0.12334177  1
  H  H12  1  0.36035654  0.16632568  0.20985433  1
  H  H13  1  0.26770341  0.09593043  0.45992436  1
  H  H14  1  0.13385852  0.69260008  0.82086570  1
  H  H15  1  0.26396707  0.66481463  0.83873873  1
  H  H16  1  0.21482469  0.78665214  0.87420252  1
  H  H17  1  0.31538455  0.79857152  0.72186708  1
  H  H18  1  0.17870298  0.83982412  0.70558912  1
  H  H19  1  0.13412194  0.65601790  0.63563047  1
  H  H20  1  0.26661338  0.60883288  0.66275551  1
  H  H21  1  0.42968926  0.71517405  0.55877278  1
  H  H22  1  0.21260427  0.87440708  0.24327839  1
  H  H23  1  0.09493400  0.81060169  0.28196493  1
  H  H24  1  0.27888859  0.68849470  0.19197612  1
  H  H25  1  0.17092257  0.73552557  0.12951645  1
  H  H26  1  0.15686654  0.64154148  0.21630878  1
  H  H27  1  0.09411064  0.73389877  0.46158114  1
  H  H28  1  0.85965670  0.19976214  0.17965880  1
  H  H29  1  0.73155531  0.17673005  0.15830193  1
  H  H30  1  0.77867445  0.29785774  0.12797969  1
  H  H31  1  0.67588854  0.30948069  0.28102713  1
  H  H32  1  0.81199641  0.34782153  0.29841111  1
  H  H33  1  0.86168225  0.16330069  0.36164635  1
  H  H34  1  0.73104815  0.11699971  0.33476896  1
  H  H35  1  0.56638386  0.22070634  0.44522391  1
  H  H36  1  0.78727724  0.38683760  0.75587357  1
  H  H37  1  0.90350332  0.31359105  0.71856041  1
  H  H38  1  0.71742241  0.21058283  0.81308881  1
  H  H39  1  0.82470817  0.25377749  0.87359903  1
  H  H40  1  0.83707455  0.15153288  0.78835090  1
  H  H41  1  0.90296122  0.24135243  0.53669531  1
  H  H42  1  0.79196973  0.87689520  0.18309518  1
  H  H43  1  0.82964582  0.74930239  0.16301113  1
  H  H44  1  0.70536134  0.78867239  0.12892636  1
  H  H45  1  0.69884804  0.68391439  0.27925449  1
  H  H46  1  0.65604118  0.82129277  0.30001628  1
  H  H47  1  0.83992264  0.86713987  0.36606399  1
  H  H48  1  0.88540793  0.73240931  0.33967201  1
  H  H49  1  0.77800709  0.56753592  0.44192914  1
  H  H50  1  0.62015176  0.78218804  0.75576485  1
  H  H51  1  0.68401937  0.90262191  0.72037446  1
  H  H52  1  0.80508230  0.71351524  0.80812334  1
  H  H53  1  0.75377753  0.81876691  0.87376710  1
  H  H54  1  0.84846338  0.83937340  0.78915569  1
  H  H55  1  0.76415497  0.90656043  0.54211563  1
  Pb  Pb56  1  0.99336688  0.00950516  0.98633619  1
  Pb  Pb57  1  0.98594722  0.50435964  0.00559458  1
  Pb  Pb58  1  0.48854517  0.99505625  0.00592044  1
  Pb  Pb59  1  0.49182996  0.50720655  0.00536486  1
  C  C60  1  0.22967133  0.23785155  0.71491554  1
  C  C61  1  0.31856916  0.22247538  0.63909792  1
  C  C62  1  0.28401406  0.25676113  0.53622563  1
  C  C63  1  0.27160671  0.36413188  0.50847964  1
  C  C64  1  0.23224542  0.23760066  0.36850553  1
  C  C65  1  0.20449855  0.18805476  0.26990622  1
  C  C66  1  0.26158853  0.18435082  0.45512406  1
  C  C67  1  0.23285673  0.76960935  0.71827260  1
  C  C68  1  0.21826464  0.68038192  0.63927647  1
  C  C69  1  0.25267504  0.71625786  0.53867840  1
  C  C70  1  0.35812192  0.72992140  0.51292054  1
  C  C71  1  0.23220580  0.77275535  0.37364934  1
  C  C72  1  0.18198508  0.80009860  0.27577848  1
  C  C73  1  0.18091204  0.74060369  0.45796374  1
  C  C74  1  0.75915265  0.27884918  0.28368940  1
  C  C75  1  0.77673565  0.18847106  0.35970009  1
  C  C76  1  0.74337041  0.22297767  0.46220656  1
  C  C77  1  0.63809000  0.23519969  0.49046316  1
  C  C78  1  0.76530950  0.27819363  0.62857436  1
  C  C79  1  0.81641063  0.30860552  0.72557190  1
  C  C80  1  0.81599004  0.24713820  0.54224535  1
  C  C81  1  0.72581134  0.76825585  0.28482093  1
  C  C82  1  0.81537792  0.78177660  0.36314185  1
  C  C83  1  0.78055620  0.74664855  0.46390928  1
  C  C84  1  0.76473583  0.63945797  0.48834018  1
  C  C85  1  0.72249854  0.76526939  0.62779004  1
  C  C86  1  0.69413714  0.81409751  0.72578860  1
  C  C87  1  0.75651768  0.81844936  0.54470467  1
  S  S88  1  0.23108649  0.37687026  0.38715954  1
  S  S89  1  0.36935492  0.77377647  0.39367281  1
  S  S90  1  0.62765606  0.27852903  0.61125577  1
  S  S91  1  0.71839532  0.62665089  0.60598660  1
  I  I92  1  0.24249754  0.93870943  0.02371641  1
  I  I93  1  0.24169242  0.52439654  0.01069041  1
  I  I94  1  0.74188354  0.03602955  0.98162891  1
  I  I95  1  0.74776773  0.42991042  0.98963435  1
  I  I96  1  0.06651725  0.25174175  0.99603862  1
  I  I97  1  0.97064918  0.75756781  0.01506354  1
  I  I98  1  0.47932003  0.25053593  0.98194060  1
  I  I99  1  0.57795311  0.75032398  0.99342335  1
  I  I100  1  0.97393168  1.00012035  0.74192925  1
  I  I101  1  0.96795426  0.01543598  0.22060330  1
  I  I102  1  0.98012540  0.55493873  0.77212888  1
  I  I103  1  0.98496743  0.52323032  0.24569256  1
  I  I104  1  0.45095481  0.98317747  0.77340447  1
  I  I105  1  0.51137775  0.03770584  0.24687246  1
  I  I106  1  0.45718223  0.52429323  0.76560038  1
  I  I107  1  0.49179296  0.49769732  0.23909537  1
  N  N108  1  0.27110976  0.20581161  0.81591883  1
  N  N109  1  0.28787566  0.20808654  0.19221617  1
  N  N110  1  0.20978632  0.72656878  0.81946526  1
  N  N111  1  0.19930416  0.71091223  0.19884890  1
  N  N112  1  0.78393726  0.23653223  0.18124800  1
  N  N113  1  0.79759660  0.22542799  0.80476714  1
  N  N114  1  0.76505487  0.79777657  0.18447956  1
  N  N115  1  0.78093896  0.79446749  0.80444434  1
