# generated using pymatgen
data_H14PbC7S(I2N)2
_symmetry_space_group_name_H-M   'P 1'
_cell_length_a   12.49289600
_cell_length_b   13.02238827
_cell_length_c   12.25641643
_cell_angle_alpha   88.36751184
_cell_angle_beta   88.77585396
_cell_angle_gamma   90.26769715
_symmetry_Int_Tables_number   1
_chemical_formula_structural   H14PbC7S(I2N)2
_chemical_formula_sum   'H56 Pb4 C28 S4 I16 N8'
_cell_volume   1992.67178904
_cell_formula_units_Z   4
loop_
 _symmetry_equiv_pos_site_id
 _symmetry_equiv_pos_as_xyz
  1  'x, y, z'
loop_
 _atom_site_type_symbol
 _atom_site_label
 _atom_site_symmetry_multiplicity
 _atom_site_fract_x
 _atom_site_fract_y
 _atom_site_fract_z
 _atom_site_occupancy
  H  H0  1  0.09388576  0.30520899  0.80003337  1
  H  H1  1  0.10620348  0.18688265  0.73078695  1
  H  H2  1  0.06188961  0.30054725  0.66073257  1
  H  H3  1  0.23814385  0.38317727  0.67392610  1
  H  H4  1  0.28686481  0.32031021  0.84473257  1
  H  H5  1  0.38433789  0.28830050  0.75690322  1
  H  H6  1  0.29641839  0.19791022  0.80885574  1
  H  H7  1  0.29973700  0.37633086  0.47076194  1
  H  H8  1  0.38852282  0.31519930  0.27989313  1
  H  H9  1  0.38316261  0.18245188  0.24775981  1
  H  H10  1  0.18743646  0.31588431  0.24880628  1
  H  H11  1  0.26965203  0.30641246  0.14145683  1
  H  H12  1  0.20690810  0.20106546  0.19112547  1
  H  H13  1  0.30182174  0.05028732  0.39552613  1
  H  H14  1  0.31507789  0.89715813  0.79860976  1
  H  H15  1  0.19631769  0.89941391  0.71937153  1
  H  H16  1  0.32466438  0.92204936  0.65648590  1
  H  H17  1  0.38068849  0.74473080  0.69361480  1
  H  H18  1  0.29683289  0.71227621  0.86160409  1
  H  H19  1  0.24562659  0.62362594  0.77996168  1
  H  H20  1  0.17208344  0.72326422  0.81602389  1
  H  H21  1  0.38504081  0.70134292  0.49027846  1
  H  H22  1  0.34476596  0.64698229  0.28946210  1
  H  H23  1  0.21055198  0.61798687  0.25680322  1
  H  H24  1  0.30722906  0.82928887  0.25199381  1
  H  H25  1  0.28811228  0.75630464  0.14479331  1
  H  H26  1  0.18215936  0.80129624  0.21699130  1
  H  H27  1  0.05107468  0.70024188  0.39138505  1
  H  H28  1  0.68924270  0.40618417  0.20673099  1
  H  H29  1  0.81013650  0.39175525  0.28218849  1
  H  H30  1  0.68702455  0.42494410  0.34882430  1
  H  H31  1  0.60837730  0.25611510  0.31761723  1
  H  H32  1  0.67590295  0.22132643  0.14546358  1
  H  H33  1  0.72287831  0.12618018  0.22424597  1
  H  H34  1  0.80397085  0.22200474  0.17946921  1
  H  H35  1  0.60807163  0.20805390  0.52062441  1
  H  H36  1  0.65114280  0.13449176  0.71786886  1
  H  H37  1  0.78530945  0.10563975  0.75166562  1
  H  H38  1  0.70031333  0.32008456  0.74230413  1
  H  H39  1  0.69662039  0.24451675  0.85389422  1
  H  H40  1  0.81565613  0.27787989  0.79880728  1
  H  H41  1  0.94347839  0.16691204  0.60477265  1
  H  H42  1  0.60567426  0.67002537  0.21216049  1
  H  H43  1  0.59947651  0.78613726  0.28667419  1
  H  H44  1  0.58370378  0.66448256  0.35508164  1
  H  H45  1  0.77205125  0.61880166  0.31550056  1
  H  H46  1  0.79189362  0.69729752  0.14240604  1
  H  H47  1  0.88806165  0.74715757  0.21865283  1
  H  H48  1  0.78126668  0.81741121  0.18601768  1
  H  H49  1  0.81302692  0.62282720  0.52015488  1
  H  H50  1  0.88343362  0.67375100  0.71440632  1
  H  H51  1  0.89953362  0.80659690  0.74240009  1
  H  H52  1  0.69292746  0.69202268  0.75393376  1
  H  H53  1  0.76571099  0.72202516  0.85955715  1
  H  H54  1  0.70607452  0.81565699  0.78160740  1
  H  H55  1  0.81567835  0.94757771  0.59976370  1
  Pb  Pb56  1  0.01973227  0.98974261  0.01633464  1
  Pb  Pb57  1  0.99689694  0.48557223  0.00965957  1
  Pb  Pb58  1  0.50397214  0.97409029  0.00115713  1
  Pb  Pb59  1  0.50832422  0.48565357  0.97267095  1
  C  C60  1  0.11665575  0.27058111  0.72253550  1
  C  C61  1  0.23031944  0.29942340  0.68636156  1
  C  C62  1  0.26385876  0.24840022  0.58360732  1
  C  C63  1  0.29146018  0.29345830  0.48396675  1
  C  C64  1  0.30702242  0.21987441  0.40079055  1
  C  C65  1  0.33887881  0.24541157  0.28531315  1
  C  C66  1  0.29202925  0.12047393  0.44031977  1
  C  C67  1  0.28107716  0.87727723  0.72013740  1
  C  C68  1  0.29496303  0.76404390  0.69689444  1
  C  C69  1  0.24542224  0.73439348  0.59226074  1
  C  C70  1  0.29827323  0.70920972  0.49688562  1
  C  C71  1  0.22755754  0.69596078  0.40861744  1
  C  C72  1  0.26230037  0.67513751  0.29414574  1
  C  C73  1  0.12186403  0.70958132  0.44005213  1
  C  C74  1  0.72306238  0.37907874  0.28410524  1
  C  C75  1  0.69566350  0.26647552  0.30864232  1
  C  C76  1  0.74633007  0.22632812  0.41075673  1
  C  C77  1  0.69490269  0.20641489  0.50974151  1
  C  C78  1  0.76733009  0.18440594  0.59558075  1
  C  C79  1  0.73379623  0.16300323  0.71180324  1
  C  C80  1  0.87267965  0.18605496  0.55853767  1
  C  C81  1  0.62693386  0.70608835  0.28859553  1
  C  C82  1  0.74659387  0.69951029  0.30894751  1
  C  C83  1  0.77852512  0.75218700  0.41012323  1
  C  C84  1  0.80476581  0.70576800  0.50835712  1
  C  C85  1  0.81944499  0.77774491  0.59237607  1
  C  C86  1  0.84594069  0.74966006  0.70753359  1
  C  C87  1  0.80527369  0.87770960  0.55482873  1
  S  S88  1  0.25676117  0.11606773  0.57513021  1
  S  S89  1  0.10902036  0.74289271  0.57276958  1
  S  S90  1  0.88384518  0.21739802  0.42288810  1
  S  S91  1  0.77135809  0.88413794  0.42117811  1
  I  I92  1  0.26191481  0.07217859  0.98486293  1
  I  I93  1  0.25280498  0.45563154  0.97181111  1
  I  I94  1  0.75608036  0.96815705  0.05515979  1
  I  I95  1  0.75068718  0.56460071  0.00637932  1
  I  I96  1  0.93358060  0.25110126  0.00431289  1
  I  I97  1  0.04866400  0.74635656  0.01204750  1
  I  I98  1  0.54419547  0.24144149  0.99548576  1
  I  I99  1  0.44155228  0.73680813  -0.00319216  1
  I  I100  1  0.99330371  0.99536102  0.76243807  1
  I  I101  1  0.05675482  0.96977856  0.27235403  1
  I  I102  1  0.00314889  0.51417475  0.75448265  1
  I  I103  1  0.03867643  0.46101910  0.27086147  1
  I  I104  1  0.56159993  0.93899389  0.74675023  1
  I  I105  1  0.47417825  0.96854999  0.25895979  1
  I  I106  1  0.53363268  0.45291286  0.70400249  1
  I  I107  1  0.46722421  0.48598207  0.22029151  1
  N  N108  1  0.30526356  0.27304488  0.77898661  1
  N  N109  1  0.24438514  0.26801397  0.21285481  1
  N  N110  1  0.24893995  0.70129930  0.79367357  1
  N  N111  1  0.25889567  0.77135438  0.22273891  1
  N  N112  1  0.72733306  0.20460261  0.20999868  1
  N  N113  1  0.73826639  0.25793025  0.77996840  1
  N  N114  1  0.80639313  0.74344996  0.20908644  1
  N  N115  1  0.74698492  0.74511092  0.78060694  1
