# generated using pymatgen
data_H12PbC8S2(I2N)2
_symmetry_space_group_name_H-M   'P 1'
_cell_length_a   12.45474507
_cell_length_b   12.73520630
_cell_length_c   13.78282298
_cell_angle_alpha   90.37079123
_cell_angle_beta   88.34220675
_cell_angle_gamma   89.88784328
_symmetry_Int_Tables_number   1
_chemical_formula_structural   H12PbC8S2(I2N)2
_chemical_formula_sum   'H48 Pb4 C32 S8 I16 N8'
_cell_volume   2185.17939280
_cell_formula_units_Z   4
loop_
 _symmetry_equiv_pos_site_id
 _symmetry_equiv_pos_as_xyz
  1  'x, y, z'
loop_
 _atom_site_type_symbol
 _atom_site_label
 _atom_site_symmetry_multiplicity
 _atom_site_fract_x
 _atom_site_fract_y
 _atom_site_fract_z
 _atom_site_occupancy
  H  H0  1  0.30495651  0.28274080  0.81824603  1
  H  H1  1  0.22378479  0.37595547  0.86099056  1
  H  H2  1  0.30754257  0.40046502  0.76495418  1
  H  H3  1  0.11017544  0.37471641  0.73460245  1
  H  H4  1  0.12971229  0.24116237  0.77011501  1
  H  H5  1  0.21020940  0.11148120  0.64514556  1
  H  H6  1  0.25728100  0.01550187  0.43300980  1
  H  H7  1  0.18992730  0.43358544  0.31543896  1
  H  H8  1  0.33112623  0.41560888  0.29727916  1
  H  H9  1  0.29440255  0.30439240  0.15747670  1
  H  H10  1  0.16207833  0.32639795  0.17198643  1
  H  H11  1  0.24596947  0.42474232  0.14771909  1
  H  H12  1  0.25397029  0.68722003  0.80968078  1
  H  H13  1  0.35161257  0.75408879  0.86489361  1
  H  H14  1  0.38122904  0.67654062  0.76848922  1
  H  H15  1  0.38071621  0.86942192  0.73592251  1
  H  H16  1  0.24170815  0.86944369  0.76987141  1
  H  H17  1  0.10453336  0.79457583  0.64784301  1
  H  H18  1  0.00963435  0.74957216  0.43884490  1
  H  H19  1  0.44410919  0.78854705  0.31712124  1
  H  H20  1  0.41500926  0.65351489  0.29388189  1
  H  H21  1  0.31012114  0.70590804  0.15726245  1
  H  H22  1  0.33555267  0.83334907  0.17709691  1
  H  H23  1  0.43412255  0.75019917  0.14737472  1
  H  H24  1  0.72947593  0.17096183  0.17674010  1
  H  H25  1  0.61979378  0.23357003  0.14458048  1
  H  H26  1  0.61428514  0.15179909  0.23885964  1
  H  H27  1  0.61448129  0.35111366  0.26953228  1
  H  H28  1  0.75059557  0.34716215  0.22868509  1
  H  H29  1  0.89274533  0.27100740  0.34941743  1
  H  H30  1  0.99124119  0.23444247  0.55811201  1
  H  H31  1  0.56611722  0.30177366  0.69665296  1
  H  H32  1  0.57770134  0.16167209  0.69783660  1
  H  H33  1  0.69071839  0.17367536  0.83700485  1
  H  H34  1  0.68537615  0.30513589  0.83634637  1
  H  H35  1  0.57483804  0.23417634  0.85749395  1
  H  H36  1  0.82415204  0.72257047  0.17978729  1
  H  H37  1  0.75368680  0.62364197  0.13795431  1
  H  H38  1  0.83569928  0.60306749  0.22985273  1
  H  H39  1  0.63615364  0.61196456  0.26914177  1
  H  H40  1  0.64254285  0.74619615  0.23473376  1
  H  H41  1  0.72399529  0.88162054  0.35607888  1
  H  H42  1  0.77605285  0.97726428  0.56348978  1
  H  H43  1  0.71969991  0.56018860  0.68890522  1
  H  H44  1  0.86131117  0.57980669  0.70062066  1
  H  H45  1  0.82705036  0.69018058  0.84002678  1
  H  H46  1  0.69405592  0.68484991  0.82655273  1
  H  H47  1  0.76244029  0.57714591  0.85451665  1
  Pb  Pb48  1  0.01825145  0.99438300  0.01168991  1
  Pb  Pb49  1  0.00631914  0.51260454  0.00245175  1
  Pb  Pb50  1  0.53128884  0.98458924  0.00896990  1
  Pb  Pb51  1  0.49597415  0.48844484  0.97026741  1
  C  C52  1  0.16722079  0.30872962  0.73344832  1
  C  C53  1  0.20237408  0.27991143  0.63295682  1
  C  C54  1  0.21820902  0.17996445  0.59843633  1
  C  C55  1  0.23740787  0.17704878  0.49550395  1
  C  C56  1  0.25402496  0.10015244  0.42498795  1
  C  C57  1  0.24695772  0.28119504  0.35434558  1
  C  C58  1  0.25257978  0.37672059  0.29294281  1
  C  C59  1  0.23401891  0.28044257  0.45414382  1
  C  C60  1  0.30639582  0.82322507  0.73417305  1
  C  C61  1  0.27714837  0.79502284  0.63354960  1
  C  C62  1  0.17533687  0.78481616  0.60047041  1
  C  C63  1  0.17406557  0.76393216  0.49831817  1
  C  C64  1  0.09647351  0.74845261  0.42958982  1
  C  C65  1  0.28353958  0.74504821  0.35629894  1
  C  C66  1  0.38187101  0.73368583  0.29327527  1
  C  C67  1  0.28093411  0.76123275  0.45552188  1
  C  C68  1  0.68742853  0.30273592  0.26747890  1
  C  C69  1  0.72034567  0.27706240  0.36713122  1
  C  C70  1  0.82281975  0.26679183  0.39837739  1
  C  C71  1  0.82600254  0.25304421  0.50128709  1
  C  C72  1  0.90473253  0.23916333  0.56911658  1
  C  C73  1  0.71896443  0.24303268  0.64538764  1
  C  C74  1  0.62108228  0.23584611  0.70959407  1
  C  C75  1  0.72005821  0.25483360  0.54593518  1
  C  C76  1  0.68680553  0.68237871  0.26904518  1
  C  C77  1  0.71676399  0.71301095  0.36871870  1
  C  C78  1  0.73077982  0.81304594  0.40230201  1
  C  C79  1  0.75282735  0.81573639  0.50362718  1
  C  C80  1  0.77369213  0.89266683  0.57214204  1
  C  C81  1  0.77362717  0.71162476  0.64313333  1
  C  C82  1  0.78185890  0.61790539  0.70675654  1
  C  C83  1  0.75302621  0.71225035  0.54514656  1
  S  S84  1  0.26499993  0.15418635  0.31233474  1
  S  S85  1  0.21098407  0.37708280  0.54206713  1
  S  S86  1  0.15383783  0.73112373  0.31668066  1
  S  S87  1  0.37828542  0.78080072  0.54170295  1
  S  S88  1  0.84923837  0.22754715  0.68329862  1
  S  S89  1  0.62109660  0.27088828  0.46102320  1
  S  S90  1  0.79544516  0.83865909  0.68249299  1
  S  S91  1  0.72836062  0.61590942  0.45871751  1
  I  I92  1  0.27722544  0.93029852  0.01150185  1
  I  I93  1  0.25083206  0.57594424  0.02380769  1
  I  I94  1  0.77013502  0.08515841  0.99347758  1
  I  I95  1  0.74802515  0.43295080  0.97705872  1
  I  I96  1  0.07482005  0.27681109  0.99232376  1
  I  I97  1  0.91933802  0.76366385  0.00226730  1
  I  I98  1  0.43237289  0.24012814  0.99317534  1
  I  I99  1  0.56884458  0.73135630  0.99549994  1
  I  I100  1  0.04667832  0.00944226  0.78014619  1
  I  I101  1  0.97339887  0.00670817  0.23596542  1
  I  I102  1  0.06896997  0.57941387  0.78219637  1
  I  I103  1  0.97694649  0.47473388  0.23525057  1
  I  I104  1  0.54803237  0.97666446  0.78602835  1
  I  I105  1  0.52540425  0.98100918  0.24927821  1
  I  I106  1  0.48621556  0.50770754  0.73217906  1
  I  I107  1  0.49361276  0.48639168  0.19233452  1
  N  N108  1  0.25738312  0.34456187  0.79740367  1
  N  N109  1  0.23762982  0.35547220  0.18740150  1
  N  N110  1  0.32485011  0.72919879  0.79821284  1
  N  N111  1  0.36351864  0.75766141  0.18910040  1
  N  N112  1  0.66169638  0.20956447  0.20423635  1
  N  N113  1  0.64533340  0.23781781  0.81481236  1
  N  N114  1  0.78065244  0.65699024  0.20130786  1
  N  N115  1  0.76526573  0.64497276  0.81202615  1
