# generated using pymatgen
data_H11PbC5SI4N3
_symmetry_space_group_name_H-M   'P 1'
_cell_length_a   12.75123304
_cell_length_b   12.71604697
_cell_length_c   11.26364784
_cell_angle_alpha   89.09028495
_cell_angle_beta   89.93642062
_cell_angle_gamma   90.29399937
_symmetry_Int_Tables_number   1
_chemical_formula_structural   H11PbC5SI4N3
_chemical_formula_sum   'H44 Pb4 C20 S4 I16 N12'
_cell_volume   1826.09177422
_cell_formula_units_Z   4
loop_
 _symmetry_equiv_pos_site_id
 _symmetry_equiv_pos_as_xyz
  1  'x, y, z'
loop_
 _atom_site_type_symbol
 _atom_site_label
 _atom_site_symmetry_multiplicity
 _atom_site_fract_x
 _atom_site_fract_y
 _atom_site_fract_z
 _atom_site_occupancy
  H  H0  1  0.22826167  0.12131060  0.84088910  1
  H  H1  1  0.34041099  0.16950449  0.78710251  1
  H  H2  1  0.26130392  0.09809744  0.69991570  1
  H  H3  1  0.22179145  0.31368319  0.78552115  1
  H  H4  1  0.12204465  0.23031781  0.72821768  1
  H  H5  1  0.24338148  0.45032698  0.59611054  1
  H  H6  1  0.38308850  0.19167639  0.26954942  1
  H  H7  1  0.33013654  0.08423796  0.35317878  1
  H  H8  1  0.16007569  0.11857198  0.26156186  1
  H  H9  1  0.25310973  0.10262818  0.15881923  1
  H  H10  1  0.20934298  0.22259251  0.18560544  1
  H  H11  1  0.12036325  0.77574980  0.83620967  1
  H  H12  1  0.16136686  0.66075831  0.78438421  1
  H  H13  1  0.10064976  0.74557464  0.69318665  1
  H  H14  1  0.31507009  0.76843260  0.78970069  1
  H  H15  1  0.24148061  0.87614422  0.73122851  1
  H  H16  1  0.45196414  0.75689421  0.59698661  1
  H  H17  1  0.18862366  0.61447303  0.27535207  1
  H  H18  1  0.08262052  0.66638912  0.35804707  1
  H  H19  1  0.11372746  0.83671575  0.26129410  1
  H  H20  1  0.09736975  0.74237025  0.16111758  1
  H  H21  1  0.21656795  0.78881022  0.18584989  1
  H  H22  1  0.86221946  0.27601280  0.14724037  1
  H  H23  1  0.84156286  0.16840110  0.23278051  1
  H  H24  1  0.90584814  0.27380027  0.28618571  1
  H  H25  1  0.68198492  0.27857788  0.21279842  1
  H  H26  1  0.75870491  0.38463000  0.26473568  1
  H  H27  1  0.55006416  0.28041134  0.40860712  1
  H  H28  1  0.81031273  0.12415942  0.73192459  1
  H  H29  1  0.91702002  0.17313919  0.64523675  1
  H  H30  1  0.89536442  0.34412234  0.73468592  1
  H  H31  1  0.90282430  0.25149751  0.84035641  1
  H  H32  1  0.78790238  0.30524004  0.80962441  1
  H  H33  1  0.71968243  0.86578395  0.14973253  1
  H  H34  1  0.82793317  0.84400099  0.23093982  1
  H  H35  1  0.72447857  0.90792212  0.28853454  1
  H  H36  1  0.71657280  0.68411258  0.21606667  1
  H  H37  1  0.61222646  0.76036938  0.27218681  1
  H  H38  1  0.72523852  0.54958819  0.41007882  1
  H  H39  1  0.87358571  0.81044490  0.73246164  1
  H  H40  1  0.82487080  0.91720942  0.64564677  1
  H  H41  1  0.65133758  0.88798772  0.73495902  1
  H  H42  1  0.74306842  0.90255758  0.83912349  1
  H  H43  1  0.69446307  0.78392667  0.81330989  1
  Pb  Pb44  1  0.00349089  0.00005533  0.99979957  1
  Pb  Pb45  1  0.99102007  0.50152867  0.00520314  1
  Pb  Pb46  1  0.50130842  0.00513055  0.00446653  1
  Pb  Pb47  1  0.48540218  0.51207371  0.98676795  1
  C  C48  1  0.20596796  0.24998292  0.72376592  1
  C  C49  1  0.23906168  0.27624459  0.59952197  1
  C  C50  1  0.25213884  0.37574806  0.55194229  1
  C  C51  1  0.28364684  0.23252564  0.41728332  1
  C  C52  1  0.31348681  0.16314898  0.31790949  1
  C  C53  1  0.25398673  0.79090406  0.72611843  1
  C  C54  1  0.27841120  0.75927579  0.60173604  1
  C  C55  1  0.37670681  0.74773430  0.55353168  1
  C  C56  1  0.23147846  0.71570257  0.41990151  1
  C  C57  1  0.16054516  0.68416118  0.32180624  1
  C  C58  1  0.74536225  0.29934643  0.27361778  1
  C  C59  1  0.72293316  0.26778994  0.39944215  1
  C  C60  1  0.62476839  0.26363425  0.45051693  1
  C  C61  1  0.76937126  0.22396851  0.58234214  1
  C  C62  1  0.83998169  0.19269814  0.68157042  1
  C  C63  1  0.69725695  0.74699705  0.27745624  1
  C  C64  1  0.73116602  0.72357580  0.40197131  1
  C  C65  1  0.73969961  0.62447604  0.45205508  1
  C  C66  1  0.77590353  0.76894738  0.58354925  1
  C  C67  1  0.80543898  0.83931407  0.68256494  1
  S  S68  1  0.28819534  0.36842778  0.40685848  1
  S  S69  1  0.36679442  0.71268405  0.40866917  1
  S  S70  1  0.63472757  0.23094410  0.59703797  1
  S  S71  1  0.77399288  0.63339138  0.59747070  1
  I  I72  1  0.25460841  0.94134409  0.01676603  1
  I  I73  1  0.24211061  0.57918913  0.00981536  1
  I  I74  1  0.75986750  0.06023113  0.98820439  1
  I  I75  1  0.75402821  0.43570205  0.98475796  1
  I  I76  1  0.05617084  0.24549973  0.00224926  1
  I  I77  1  0.93438932  0.75252139  0.00514847  1
  I  I78  1  0.42561590  0.24276984  0.00122735  1
  I  I79  1  0.56291377  0.75311229  0.99277981  1
  I  I80  1  0.04268232  0.99386878  0.72492666  1
  I  I81  1  -0.00203326  0.99662801  0.29661408  1
  I  I82  1  0.02094405  0.49387176  0.71745252  1
  I  I83  1  0.99020298  0.46650703  0.28395365  1
  I  I84  1  0.48686238  0.98873240  0.71482426  1
  I  I85  1  0.53215416  0.99371508  0.28288625  1
  I  I86  1  0.49853099  0.49973023  0.71182272  1
  I  I87  1  0.52633851  0.49266998  0.26336437  1
  N  N88  1  0.26288633  0.15373622  0.76580070  1
  N  N89  1  0.22857489  0.15206817  0.22635723  1
  N  N90  1  0.25668775  0.19551228  0.52319162  1
  N  N91  1  0.15271464  0.73996334  0.76328737  1
  N  N92  1  0.14712234  0.76821759  0.22788935  1
  N  N93  1  0.19652442  0.74146412  0.52591994  1
  N  N94  1  0.84456034  0.24942002  0.23229733  1
  N  N95  1  0.85616342  0.27785529  0.77039037  1
  N  N96  1  0.80458197  0.24552355  0.47432246  1
  N  N97  1  0.74713216  0.84713402  0.23380040  1
  N  N98  1  0.71911395  0.85307355  0.77136837  1
  N  N99  1  0.75154470  0.80511735  0.47666073  1
