# generated using pymatgen
data_H17PbC13I4N3
_symmetry_space_group_name_H-M   'P 1'
_cell_length_a   12.45458586
_cell_length_b   12.20499919
_cell_length_c   16.95806792
_cell_angle_alpha   90.58175857
_cell_angle_beta   90.59844366
_cell_angle_gamma   88.37080758
_symmetry_Int_Tables_number   1
_chemical_formula_structural   H17PbC13I4N3
_chemical_formula_sum   'H68 Pb4 C52 I16 N12'
_cell_volume   2576.45768975
_cell_formula_units_Z   4
loop_
 _symmetry_equiv_pos_site_id
 _symmetry_equiv_pos_as_xyz
  1  'x, y, z'
loop_
 _atom_site_type_symbol
 _atom_site_label
 _atom_site_symmetry_multiplicity
 _atom_site_fract_x
 _atom_site_fract_y
 _atom_site_fract_z
 _atom_site_occupancy
  H  H0  1  0.35232689  0.27415355  0.82309908  1
  H  H1  1  0.28797310  0.20812458  0.89209403  1
  H  H2  1  0.32485735  0.14213371  0.80943293  1
  H  H3  1  0.16639167  0.33172657  0.81798904  1
  H  H4  1  0.12946645  0.19176050  0.80998738  1
  H  H5  1  0.24397113  0.42633039  0.70505263  1
  H  H6  1  0.27931727  0.43005160  0.56220913  1
  H  H7  1  0.22116194  0.43123980  0.43835343  1
  H  H8  1  0.25766937  0.42177583  0.29435797  1
  H  H9  1  0.36069203  0.31066455  0.18781977  1
  H  H10  1  0.37433657  0.16619464  0.19691065  1
  H  H11  1  0.24183179  0.21876575  0.10269291  1
  H  H12  1  0.17907132  0.15532898  0.17604645  1
  H  H13  1  0.16724796  0.29229144  0.16795654  1
  H  H14  1  0.34340466  0.07935036  0.32262830  1
  H  H15  1  0.20215743  0.08845666  0.54236098  1
  H  H16  1  0.16443172  0.08540808  0.68625838  1
  H  H17  1  0.27251728  0.64907739  0.82780331  1
  H  H18  1  0.21590957  0.72837619  0.89558640  1
  H  H19  1  0.14575799  0.69134868  0.81560226  1
  H  H20  1  0.34019824  0.83137556  0.81678209  1
  H  H21  1  0.20507920  0.88326085  0.80987014  1
  H  H22  1  0.42961137  0.75286277  0.70201529  1
  H  H23  1  0.43055443  0.71714949  0.55832886  1
  H  H24  1  0.42653162  0.77936209  0.43596224  1
  H  H25  1  0.41738083  0.73828052  0.29200322  1
  H  H26  1  0.31132603  0.62830368  0.18724838  1
  H  H27  1  0.17029524  0.61723938  0.19814954  1
  H  H28  1  0.21026817  0.74268563  0.09988202  1
  H  H29  1  0.15263340  0.81764293  0.17352848  1
  H  H30  1  0.28398707  0.82085834  0.15771632  1
  H  H31  1  0.08502062  0.65880196  0.32212742  1
  H  H32  1  0.09215707  0.80049033  0.54500755  1
  H  H33  1  0.09157010  0.83790775  0.68962421  1
  H  H34  1  0.72177784  0.15662404  0.16289805  1
  H  H35  1  0.79884540  0.23180015  0.10392123  1
  H  H36  1  0.85096141  0.17833915  0.18597966  1
  H  H37  1  0.66801950  0.34267792  0.18250042  1
  H  H38  1  0.80491468  0.38018595  0.19178147  1
  H  H39  1  0.57534195  0.25903677  0.29518112  1
  H  H40  1  0.57236244  0.22246588  0.43781108  1
  H  H41  1  0.57052331  0.27394808  0.56218617  1
  H  H42  1  0.58170213  0.23871109  0.70625084  1
  H  H43  1  0.69380221  0.14036152  0.81380938  1
  H  H44  1  0.83583079  0.12896450  0.80377041  1
  H  H45  1  0.79440456  0.26712668  0.89687982  1
  H  H46  1  0.83859204  0.33249145  0.81887234  1
  H  H47  1  0.70680716  0.33393273  0.83770863  1
  H  H48  1  0.92065607  0.16784394  0.67814309  1
  H  H49  1  0.90720647  0.29977377  0.45696819  1
  H  H50  1  0.90984256  0.33747384  0.31280546  1
  H  H51  1  0.83063216  0.73194334  0.15515758  1
  H  H52  1  0.73600907  0.79445542  0.10114502  1
  H  H53  1  0.79019183  0.85931252  0.17853077  1
  H  H54  1  0.65986866  0.65743134  0.18568737  1
  H  H55  1  0.60579814  0.79317375  0.19617340  1
  H  H56  1  0.74465296  0.56579340  0.29856633  1
  H  H57  1  0.78238903  0.56407461  0.44123449  1
  H  H58  1  0.72398144  0.56858503  0.56553322  1
  H  H59  1  0.75692783  0.58055597  0.71014509  1
  H  H60  1  0.86567426  0.69253887  0.81570586  1
  H  H61  1  0.86929884  0.83731707  0.80462793  1
  H  H62  1  0.74578455  0.79742560  0.90177776  1
  H  H63  1  0.67082496  0.84268298  0.82610217  1
  H  H64  1  0.67855197  0.70902426  0.84709633  1
  H  H65  1  0.83316989  0.92033070  0.67930079  1
  H  H66  1  0.70416728  0.91033922  0.45601168  1
  H  H67  1  0.66454478  0.91177134  0.31207850  1
  Pb  Pb68  1  0.01314954  0.98821224  0.00559041  1
  Pb  Pb69  1  0.01319328  0.49312004  0.99713308  1
  Pb  Pb70  1  0.51259267  0.00989763  0.99518000  1
  Pb  Pb71  1  0.50434803  0.49451811  1.00266788  1
  C  C72  1  0.18914899  0.25131345  0.79280214  1
  C  C73  1  0.20289265  0.25548311  0.70517043  1
  C  C74  1  0.23405849  0.35235777  0.66936257  1
  C  C75  1  0.25343849  0.35428331  0.58871451  1
  C  C76  1  0.24272522  0.25906400  0.54230669  1
  C  C77  1  0.26395776  0.25901775  0.45658208  1
  C  C78  1  0.24910863  0.35437385  0.41124855  1
  C  C79  1  0.26815422  0.34890858  0.33074674  1
  C  C80  1  0.30044998  0.24848360  0.29658073  1
  C  C81  1  0.32179231  0.23763588  0.21023311  1
  C  C82  1  0.31474050  0.15848970  0.34665134  1
  C  C83  1  0.21093152  0.16214648  0.57840637  1
  C  C84  1  0.19064269  0.16065950  0.65888390  1
  C  C85  1  0.25994511  0.81521474  0.79294435  1
  C  C86  1  0.26050842  0.79640997  0.70547051  1
  C  C87  1  0.35554684  0.76331612  0.66762582  1
  C  C88  1  0.35602376  0.74434805  0.58652771  1
  C  C89  1  0.26123615  0.75757185  0.54161532  1
  C  C90  1  0.26018221  0.73757208  0.45536801  1
  C  C91  1  0.35198725  0.75169907  0.40922516  1
  C  C92  1  0.34639413  0.73085756  0.32862192  1
  C  C93  1  0.24895521  0.69823493  0.29514266  1
  C  C94  1  0.23836563  0.67066927  0.20939471  1
  C  C95  1  0.16179987  0.68671342  0.34579525  1
  C  C96  1  0.16573990  0.79027421  0.57984628  1
  C  C97  1  0.16560460  0.81007579  0.66076263  1
  C  C98  1  0.74697403  0.31767795  0.20656868  1
  C  C99  1  0.74328124  0.29874132  0.29396154  1
  C  C100  1  0.64833661  0.26812245  0.33043553  1
  C  C101  1  0.64668857  0.24873245  0.41127290  1
  C  C102  1  0.73999406  0.25965156  0.45778062  1
  C  C103  1  0.74090307  0.23900263  0.54382728  1
  C  C104  1  0.64720981  0.24973036  0.58926296  1
  C  C105  1  0.65333233  0.23081308  0.66989217  1
  C  C106  1  0.75283747  0.20221646  0.70415032  1
  C  C107  1  0.76441823  0.18071527  0.79062748  1
  C  C108  1  0.84171716  0.19263871  0.65409595  1
  C  C109  1  0.83479556  0.29129201  0.42104117  1
  C  C110  1  0.83619246  0.31105443  0.34039228  1
  C  C111  1  0.67604869  0.73968481  0.20872446  1
  C  C112  1  0.70329140  0.73913333  0.29519510  1
  C  C113  1  0.73609605  0.64179346  0.33270694  1
  C  C114  1  0.75598368  0.64081087  0.41378616  1
  C  C115  1  0.74410453  0.73736478  0.45920031  1
  C  C116  1  0.76249181  0.73889692  0.54579851  1
  C  C117  1  0.74858488  0.64559196  0.59233209  1
  C  C118  1  0.76577674  0.65262392  0.67337290  1
  C  C119  1  0.79573303  0.75267332  0.70703832  1
  C  C120  1  0.82093501  0.76486445  0.79324403  1
  C  C121  1  0.80753772  0.84113647  0.65585890  1
  C  C122  1  0.71272972  0.83517599  0.42109057  1
  C  C123  1  0.69184238  0.83577402  0.34038497  1
  I  I124  1  0.26201036  0.95879026  0.00922562  1
  I  I125  1  0.25398610  0.56959394  0.00414818  1
  I  I126  1  0.75904753  0.02698760  0.98064638  1
  I  I127  1  0.75533397  0.47531920  1.00002152  1
  I  I128  1  0.99794418  0.24036563  0.99585558  1
  I  I129  1  0.94807562  0.74248894  0.00389781  1
  I  I130  1  0.41358990  0.25466213  0.01073864  1
  I  I131  1  0.54352954  0.75349560  0.00510354  1
  I  I132  1  0.01794453  0.99539417  0.81904806  1
  I  I133  1  0.01332245  0.99246735  0.20054044  1
  I  I134  1  0.99979407  0.50111655  0.80617968  1
  I  I135  1  0.02666521  0.45617835  0.18648271  1
  I  I136  1  0.50843153  0.99694083  0.80327676  1
  I  I137  1  0.56313104  0.03253834  0.18173215  1
  I  I138  1  0.49778338  0.45461769  0.80900666  1
  I  I139  1  0.49499822  0.49709572  0.18878871  1
  N  N140  1  0.29402073  0.21602699  0.83139267  1
  N  N141  1  0.22044153  0.22479936  0.16165177  1
  N  N142  1  0.29726556  0.16245875  0.42420478  1
  N  N143  1  0.22061239  0.71571951  0.83511058  1
  N  N144  1  0.21976744  0.76958655  0.15792370  1
  N  N145  1  0.16629557  0.70528781  0.42343100  1
  N  N146  1  0.78220331  0.21476955  0.16206434  1
  N  N147  1  0.77649015  0.28509090  0.83855482  1
  N  N148  1  0.83694469  0.21062942  0.57663549  1
  N  N149  1  0.76431260  0.78425723  0.15847359  1
  N  N150  1  0.72267856  0.77900173  0.84438365  1
  N  N151  1  0.79142910  0.83552689  0.57800929  1
