# generated using pymatgen
data_H20PbC15(I2N)2
_symmetry_space_group_name_H-M   'P 1'
_cell_length_a   12.75485940
_cell_length_b   12.54119415
_cell_length_c   17.19655447
_cell_angle_alpha   90.57648012
_cell_angle_beta   90.76498227
_cell_angle_gamma   89.33835478
_symmetry_Int_Tables_number   1
_chemical_formula_structural   H20PbC15(I2N)2
_chemical_formula_sum   'H80 Pb4 C60 I16 N8'
_cell_volume   2750.21735050
_cell_formula_units_Z   4
loop_
 _symmetry_equiv_pos_site_id
 _symmetry_equiv_pos_as_xyz
  1  'x, y, z'
loop_
 _atom_site_type_symbol
 _atom_site_label
 _atom_site_symmetry_multiplicity
 _atom_site_fract_x
 _atom_site_fract_y
 _atom_site_fract_z
 _atom_site_occupancy
  H  H0  1  0.12687492  0.35832944  0.80745463  1
  H  H1  1  0.11537051  0.25588653  0.87765031  1
  H  H2  1  0.06609749  0.23581103  0.78230805  1
  H  H3  1  0.23626436  0.13862459  0.80637343  1
  H  H4  1  0.29756924  0.28709913  0.89524314  1
  H  H5  1  0.38588208  0.22159573  0.83961777  1
  H  H6  1  0.34552683  0.34625637  0.81708581  1
  H  H7  1  0.19878874  0.39724205  0.69403650  1
  H  H8  1  0.22871060  0.40713394  0.55346275  1
  H  H9  1  0.36848159  0.40621608  0.45565218  1
  H  H10  1  0.40033245  0.40448481  0.31416233  1
  H  H11  1  0.43899049  0.27558812  0.19727387  1
  H  H12  1  0.36351952  0.15813487  0.18842964  1
  H  H13  1  0.20926625  0.27838151  0.16766011  1
  H  H14  1  0.29304802  0.38246769  0.16776963  1
  H  H15  1  0.30159530  0.28634465  0.10089688  1
  H  H16  1  0.27244916  0.08865570  0.29587489  1
  H  H17  1  0.24024418  0.09025273  0.43740005  1
  H  H18  1  0.34314701  0.08213420  0.55287647  1
  H  H19  1  0.31336999  0.07242826  0.69419278  1
  H  H20  1  0.36270218  0.86629251  0.80931669  1
  H  H21  1  0.26259566  0.88674930  0.87909116  1
  H  H22  1  0.24457584  0.93495776  0.78380522  1
  H  H23  1  0.14236481  0.76983818  0.80809914  1
  H  H24  1  0.29574615  0.69873895  0.89262051  1
  H  H25  1  0.22174218  0.61184806  0.84329810  1
  H  H26  1  0.34048584  0.64203630  0.81162090  1
  H  H27  1  0.38946708  0.80744919  0.69225250  1
  H  H28  1  0.39474033  0.77687212  0.55079247  1
  H  H29  1  0.39827527  0.63821446  0.44921355  1
  H  H30  1  0.39308825  0.61542029  0.30658914  1
  H  H31  1  0.24965444  0.57528367  0.18982601  1
  H  H32  1  0.14584713  0.67016926  0.18433978  1
  H  H33  1  0.28436268  0.80781064  0.17529219  1
  H  H34  1  0.37503386  0.70852270  0.17624049  1
  H  H35  1  0.29116342  0.71740664  0.10344521  1
  H  H36  1  0.07402778  0.73278159  0.30058406  1
  H  H37  1  0.07908087  0.75536654  0.44349288  1
  H  H38  1  0.08349915  0.64677249  0.55545711  1
  H  H39  1  0.07823645  0.67699950  0.69736903  1
  H  H40  1  0.64035419  0.36770102  0.19223108  1
  H  H41  1  0.74003831  0.38134038  0.12207966  1
  H  H42  1  0.75950845  0.43301000  0.21710477  1
  H  H43  1  0.86164156  0.26699146  0.19647987  1
  H  H44  1  0.74061448  0.18890915  0.10316573  1
  H  H45  1  0.78533663  0.10392222  0.16995772  1
  H  H46  1  0.66118268  0.14901238  0.17457464  1
  H  H47  1  0.60662261  0.30077199  0.30651481  1
  H  H48  1  0.59725840  0.26995648  0.44710211  1
  H  H49  1  0.59723865  0.12565632  0.54410564  1
  H  H50  1  0.59878710  0.09243326  0.68554275  1
  H  H51  1  0.72098579  0.05379846  0.80324230  1
  H  H52  1  0.84246687  0.12132006  0.81027286  1
  H  H53  1  0.73308813  0.28712404  0.83071782  1
  H  H54  1  0.62757094  0.20504493  0.83665872  1
  H  H55  1  0.72768000  0.19558016  0.89994143  1
  H  H56  1  0.90953903  0.22163546  0.70471257  1
  H  H57  1  0.90840171  0.25465426  0.56315980  1
  H  H58  1  0.91421565  0.14638416  0.44727070  1
  H  H59  1  0.92336518  0.17680073  0.30558585  1
  H  H60  1  0.64055444  0.63906152  0.18747717  1
  H  H61  1  0.62251059  0.74174609  0.11797985  1
  H  H62  1  0.57275297  0.75865586  0.21316747  1
  H  H63  1  0.73586479  0.86305858  0.19253708  1
  H  H64  1  0.81033420  0.71828582  0.10561465  1
  H  H65  1  0.89159047  0.78799128  0.16435301  1
  H  H66  1  0.85950098  0.66084313  0.18495720  1
  H  H67  1  0.70394198  0.60544945  0.30443243  1
  H  H68  1  0.73061260  0.59794483  0.44622297  1
  H  H69  1  0.86308968  0.59566488  0.54645695  1
  H  H70  1  0.89688395  0.59809069  0.68815398  1
  H  H71  1  0.94752791  0.73575657  0.80300628  1
  H  H72  1  0.86635375  0.85027658  0.81093344  1
  H  H73  1  0.71912712  0.71899816  0.82842118  1
  H  H74  1  0.81427654  0.62243692  0.83354254  1
  H  H75  1  0.81067133  0.72228478  0.89838017  1
  H  H76  1  0.78326578  0.92269362  0.70097741  1
  H  H77  1  0.74656577  0.91965201  0.56008712  1
  H  H78  1  0.84014341  0.92215082  0.44727209  1
  H  H79  1  0.81146294  0.93029862  0.30538145  1
  Pb  Pb80  1  0.00695286  0.00379948  -0.00005467  1
  Pb  Pb81  1  0.98448750  0.48529363  0.00621440  1
  Pb  Pb82  1  0.49838671  1.00545154  0.00974941  1
  Pb  Pb83  1  0.49849005  0.50583844  0.98489556  1
  C  C84  1  0.12997316  0.27196876  0.81607801  1
  C  C85  1  0.23327110  0.22341615  0.79075759  1
  C  C86  1  0.25430720  0.23362457  0.70463723  1
  C  C87  1  0.23201471  0.32787906  0.66396598  1
  C  C88  1  0.24884234  0.33374425  0.58413529  1
  C  C89  1  0.28764753  0.24505373  0.54237145  1
  C  C90  1  0.30289817  0.24782564  0.45723107  1
  C  C91  1  0.34610904  0.33673230  0.42077242  1
  C  C92  1  0.36403417  0.33580535  0.34098410  1
  C  C93  1  0.33801775  0.24657520  0.29499963  1
  C  C94  1  0.36266582  0.24065581  0.20985453  1
  C  C95  1  0.29288124  0.15870036  0.33081410  1
  C  C96  1  0.27581920  0.15925968  0.41063442  1
  C  C97  1  0.31072246  0.15128481  0.58359781  1
  C  C98  1  0.29427138  0.14576471  0.66328989  1
  C  C99  1  0.27775711  0.86888382  0.81761482  1
  C  C100  1  0.22525518  0.76670719  0.79141037  1
  C  C101  1  0.23300439  0.74424529  0.70511921  1
  C  C102  1  0.32243980  0.77060197  0.66302767  1
  C  C103  1  0.32569565  0.75324545  0.58293301  1
  C  C104  1  0.23927346  0.71008551  0.54255615  1
  C  C105  1  0.23867026  0.69762384  0.45698088  1
  C  C106  1  0.32721240  0.66013931  0.41677679  1
  C  C107  1  0.32421351  0.64749852  0.33621186  1
  C  C108  1  0.23290778  0.67309122  0.29341380  1
  C  C109  1  0.22541294  0.65633178  0.20686161  1
  C  C110  1  0.14516943  0.71199179  0.33316462  1
  C  C111  1  0.14787710  0.72372730  0.41372286  1
  C  C112  1  0.15090157  0.68181233  0.58533022  1
  C  C113  1  0.14810917  0.69849745  0.66540459  1
  C  C114  1  0.72531697  0.36670450  0.18375101  1
  C  C115  1  0.77777648  0.26408015  0.21022905  1
  C  C116  1  0.76647314  0.24144642  0.29594075  1
  C  C117  1  0.67440748  0.26575701  0.33653409  1
  C  C118  1  0.66884643  0.24833519  0.41632605  1
  C  C119  1  0.75559925  0.20702693  0.45789604  1
  C  C120  1  0.75312397  0.19176377  0.54304239  1
  C  C121  1  0.66553778  0.14810728  0.57925590  1
  C  C122  1  0.66643289  0.12924015  0.65897599  1
  C  C123  1  0.75432335  0.15499443  0.70521087  1
  C  C124  1  0.76068915  0.12864060  0.79031516  1
  C  C125  1  0.84078701  0.20094500  0.66956754  1
  C  C126  1  0.84035191  0.21873859  0.58978035  1
  C  C127  1  0.84683972  0.18097709  0.41655247  1
  C  C128  1  0.85205051  0.19785109  0.33685410  1
  C  C129  1  0.63820861  0.72556082  0.17966241  1
  C  C130  1  0.73798612  0.77818293  0.20786774  1
  C  C131  1  0.75698788  0.76871077  0.29451374  1
  C  C132  1  0.73528218  0.67504831  0.33502919  1
  C  C133  1  0.75039845  0.67049320  0.41536684  1
  C  C134  1  0.78739446  0.75953161  0.45736137  1
  C  C135  1  0.80295004  0.75769527  0.54255174  1
  C  C136  1  0.84357328  0.66706330  0.58036749  1
  C  C137  1  0.86318289  0.66859418  0.66019070  1
  C  C138  1  0.84201054  0.76057222  0.70475616  1
  C  C139  1  0.86876117  0.76757364  0.78995694  1
  C  C140  1  0.79947567  0.85023097  0.66747943  1
  C  C141  1  0.78010610  0.84890998  0.58767282  1
  C  C142  1  0.80940226  0.85271854  0.41627295  1
  C  C143  1  0.79388393  0.85728180  0.33624640  1
  I  I144  1  0.24406782  0.08199325  0.02300738  1
  I  I145  1  0.23807883  0.46563389  0.98627955  1
  I  I146  1  0.74015873  0.95081896  0.98494071  1
  I  I147  1  0.73699321  0.56154968  0.00574949  1
  I  I148  1  0.90620919  0.24160606  0.00262181  1
  I  I149  1  0.02738432  0.74096009  0.99467178  1
  I  I150  1  0.53685550  0.25770740  0.01567485  1
  I  I151  1  0.43583177  0.75633626  0.99091056  1
  I  I152  1  0.02597090  0.00255037  0.81895333  1
  I  I153  1  0.97259212  0.98062955  0.18729899  1
  I  I154  1  0.93512737  0.47299974  0.81978797  1
  I  I155  1  0.99450196  0.48669916  0.19190039  1
  I  I156  1  0.48723845  0.05448785  0.82418059  1
  I  I157  1  0.51976899  0.99586992  0.19402784  1
  I  I158  1  0.49016096  0.49902031  0.79669584  1
  I  I159  1  0.46388622  0.50836167  0.16916046  1
  N  N160  1  0.32102300  0.27361003  0.83857340  1
  N  N161  1  0.28546597  0.30094490  0.15898892  1
  N  N162  1  0.27282832  0.67398979  0.83692122  1
  N  N163  1  0.29759072  0.72832039  0.16324317  1
  N  N164  1  0.73755772  0.17064398  0.16174299  1
  N  N165  1  0.70878044  0.21089485  0.84226150  1
  N  N166  1  0.83092506  0.73284931  0.16324190  1
  N  N167  1  0.79706834  0.70454252  0.84023836  1
