# generated using pymatgen
data_H20PbC18(I2N)2
_symmetry_space_group_name_H-M   'P 1'
_cell_length_a   12.33996402
_cell_length_b   12.14247076
_cell_length_c   19.23179208
_cell_angle_alpha   90.70148713
_cell_angle_beta   89.56713820
_cell_angle_gamma   89.82528046
_symmetry_Int_Tables_number   1
_chemical_formula_structural   H20PbC18(I2N)2
_chemical_formula_sum   'H80 Pb4 C72 I16 N8'
_cell_volume   2881.33414654
_cell_formula_units_Z   4
loop_
 _symmetry_equiv_pos_site_id
 _symmetry_equiv_pos_as_xyz
  1  'x, y, z'
loop_
 _atom_site_type_symbol
 _atom_site_label
 _atom_site_symmetry_multiplicity
 _atom_site_fract_x
 _atom_site_fract_y
 _atom_site_fract_z
 _atom_site_occupancy
  H  H0  1  0.23661066  0.30346361  0.91181066  1
  H  H1  1  0.21911382  0.39137009  0.84707741  1
  H  H2  1  0.33104403  0.30983777  0.84888714  1
  H  H3  1  0.20445164  0.14678856  0.84314615  1
  H  H4  1  0.09980063  0.24431064  0.83243372  1
  H  H5  1  0.10719468  0.36900977  0.72224472  1
  H  H6  1  0.13867916  0.36205837  0.59506284  1
  H  H7  1  0.22368696  0.03300646  0.51580434  1
  H  H8  1  0.24441641  0.01753767  0.38826672  1
  H  H9  1  0.28119541  0.10512397  0.27413985  1
  H  H10  1  0.37939294  0.33589980  0.16478457  1
  H  H11  1  0.36078830  0.19056827  0.16752103  1
  H  H12  1  0.23178288  0.28785007  0.09393656  1
  H  H13  1  0.17698626  0.35229735  0.16255471  1
  H  H14  1  0.17054542  0.21458304  0.15509781  1
  H  H15  1  0.35051363  0.45281659  0.26678762  1
  H  H16  1  0.32829732  0.46900151  0.39401406  1
  H  H17  1  0.28789129  0.38192494  0.50772029  1
  H  H18  1  0.33683773  0.07226010  0.61838401  1
  H  H19  1  0.30843805  0.08145138  0.74567960  1
  H  H20  1  0.30207346  0.75995091  0.90858462  1
  H  H21  1  0.38384419  0.75547909  0.83947693  1
  H  H22  1  0.28441355  0.65911987  0.84881718  1
  H  H23  1  0.14707569  0.80365662  0.84312260  1
  H  H24  1  0.25277176  0.90020625  0.83260860  1
  H  H25  1  0.36881223  0.89039055  0.71986978  1
  H  H26  1  0.35709934  0.86463944  0.59230848  1
  H  H27  1  0.02954733  0.77819647  0.51614959  1
  H  H28  1  0.01720796  0.75415715  0.38865920  1
  H  H29  1  0.10705036  0.71804455  0.27421232  1
  H  H30  1  0.34006681  0.62475753  0.16479279  1
  H  H31  1  0.19689751  0.64163560  0.16776169  1
  H  H32  1  0.28962746  0.77317757  0.09361138  1
  H  H33  1  0.35416680  0.82917550  0.16086447  1
  H  H34  1  0.21905763  0.83839745  0.15636023  1
  H  H35  1  0.45149387  0.66199337  0.26505045  1
  H  H36  1  0.46381211  0.68454844  0.39314391  1
  H  H37  1  0.37454976  0.72085913  0.50652186  1
  H  H38  1  0.06460554  0.67573641  0.61883299  1
  H  H39  1  0.07576750  0.70360209  0.74570765  1
  H  H40  1  0.69517163  0.23743338  0.09419153  1
  H  H41  1  0.61502245  0.27221801  0.16189137  1
  H  H42  1  0.68952608  0.15628431  0.16246117  1
  H  H43  1  0.85553605  0.27731533  0.15543936  1
  H  H44  1  0.76389870  0.38949223  0.16573194  1
  H  H45  1  0.64158711  0.39420235  0.27836555  1
  H  H46  1  0.64514617  0.36867285  0.40565926  1
  H  H47  1  0.96401704  0.27124748  0.48470612  1
  H  H48  1  0.97457314  0.24362468  0.61172656  1
  H  H49  1  0.88561828  0.20067578  0.72364004  1
  H  H50  1  0.66128793  0.09091032  0.82796105  1
  H  H51  1  0.80175558  0.12243485  0.82666023  1
  H  H52  1  0.69654367  0.23211791  0.90744609  1
  H  H53  1  0.62740346  0.29445450  0.84278417  1
  H  H54  1  0.75951728  0.31185343  0.85124614  1
  H  H55  1  0.54103971  0.14396160  0.73064274  1
  H  H56  1  0.52804736  0.17808536  0.60428486  1
  H  H57  1  0.61839093  0.21938221  0.49151222  1
  H  H58  1  0.92637371  0.15927043  0.38260215  1
  H  H59  1  0.92160126  0.18285351  0.25514628  1
  H  H60  1  0.76703101  0.68831261  0.09322830  1
  H  H61  1  0.73202647  0.60263571  0.15740425  1
  H  H62  1  0.84467115  0.67979402  0.16317804  1
  H  H63  1  0.71791653  0.84632139  0.15534508  1
  H  H64  1  0.61305397  0.74907344  0.16705361  1
  H  H65  1  0.62682194  0.62358132  0.27807826  1
  H  H66  1  0.65434531  0.63259290  0.40526337  1
  H  H67  1  0.72994222  0.96709359  0.48572529  1
  H  H68  1  0.75200042  0.97990244  0.61297861  1
  H  H69  1  0.79026099  0.89073202  0.72547421  1
  H  H70  1  0.89231458  0.66302729  0.83236601  1
  H  H71  1  0.86442527  0.80655410  0.82999473  1
  H  H72  1  0.74706537  0.70890914  0.90651074  1
  H  H73  1  0.69480239  0.63193569  0.84206633  1
  H  H74  1  0.67315937  0.76862771  0.84401133  1
  H  H75  1  0.85555761  0.54196490  0.73100252  1
  H  H76  1  0.83290456  0.52754622  0.60328188  1
  H  H77  1  0.79415183  0.61748124  0.49046642  1
  H  H78  1  0.83395583  0.93410608  0.38177614  1
  H  H79  1  0.80768479  0.92409590  0.25458058  1
  Pb  Pb80  1  0.01091714  0.99914125  0.00202460  1
  Pb  Pb81  1  0.01884091  0.51657353  0.00893964  1
  Pb  Pb82  1  0.51848317  0.98892845  0.00089958  1
  Pb  Pb83  1  0.51964438  0.48164986  0.98729946  1
  C  C84  1  0.18506600  0.22647173  0.82007648  1
  C  C85  1  0.20656538  0.22613566  0.74301490  1
  C  C86  1  0.15952191  0.30495977  0.69970801  1
  C  C87  1  0.17736169  0.30113087  0.62807085  1
  C  C88  1  0.24038070  0.21680906  0.59715993  1
  C  C89  1  0.25468619  0.20942371  0.52065195  1
  C  C90  1  0.24382092  0.10579286  0.48562446  1
  C  C91  1  0.25476560  0.09710929  0.41441544  1
  C  C92  1  0.27855247  0.19110232  0.37373981  1
  C  C93  1  0.29055882  0.18481458  0.30040796  1
  C  C94  1  0.31436279  0.27767227  0.26212867  1
  C  C95  1  0.32681063  0.27030226  0.18443652  1
  C  C96  1  0.32866612  0.38049802  0.29690631  1
  C  C97  1  0.31725372  0.38936812  0.36807014  1
  C  C98  1  0.29103249  0.29573931  0.40844741  1
  C  C99  1  0.27771985  0.30212939  0.48172952  1
  C  C100  1  0.28723773  0.13826533  0.64090806  1
  C  C101  1  0.27143845  0.14351238  0.71270528  1
  C  C102  1  0.22664810  0.81648986  0.81902551  1
  C  C103  1  0.22339536  0.79774580  0.74176079  1
  C  C104  1  0.30247185  0.84244566  0.69773451  1
  C  C105  1  0.29626580  0.82731434  0.62602570  1
  C  C106  1  0.21059846  0.76755987  0.59611695  1
  C  C107  1  0.20396866  0.75191633  0.52001054  1
  C  C108  1  0.10232684  0.75963178  0.48557704  1
  C  C109  1  0.09530642  0.74678299  0.41451857  1
  C  C110  1  0.18932690  0.72513921  0.37346580  1
  C  C111  1  0.18520491  0.71241631  0.30023594  1
  C  C112  1  0.27842986  0.69176519  0.26176193  1
  C  C113  1  0.27408838  0.67782685  0.18431429  1
  C  C114  1  0.37933620  0.68128539  0.29600596  1
  C  C115  1  0.38600096  0.69273552  0.36711167  1
  C  C116  1  0.29194815  0.71594933  0.40770070  1
  C  C117  1  0.29643994  0.72972805  0.48078781  1
  C  C118  1  0.13128513  0.72362830  0.64046381  1
  C  C119  1  0.13770005  0.73876535  0.71210737  1
  C  C120  1  0.77966107  0.30399106  0.18043187  1
  C  C121  1  0.78139120  0.29014377  0.25794585  1
  C  C122  1  0.70359530  0.34158397  0.30104835  1
  C  C123  1  0.70541544  0.32710409  0.37272046  1
  C  C124  1  0.78594903  0.26199347  0.40340537  1
  C  C125  1  0.78960510  0.24742346  0.47955658  1
  C  C126  1  0.89079048  0.25342200  0.51461874  1
  C  C127  1  0.89682260  0.23888229  0.58532246  1
  C  C128  1  0.80244907  0.21667767  0.62522967  1
  C  C129  1  0.80704783  0.19827869  0.69774406  1
  C  C130  1  0.71441467  0.17382690  0.73534059  1
  C  C131  1  0.72113782  0.15232912  0.81168331  1
  C  C132  1  0.61309717  0.16650831  0.70086979  1
  C  C133  1  0.60600395  0.18453743  0.63046221  1
  C  C134  1  0.69987694  0.21025897  0.59066512  1
  C  C135  1  0.69622725  0.22661065  0.51784623  1
  C  C136  1  0.86385711  0.21113792  0.35993489  1
  C  C137  1  0.86117268  0.22429145  0.28811984  1
  C  C138  1  0.69709579  0.76873390  0.18058582  1
  C  C139  1  0.71441538  0.77388041  0.25770136  1
  C  C140  1  0.67290129  0.69155769  0.30082147  1
  C  C141  1  0.68876538  0.69636809  0.37231303  1
  C  C142  1  0.74575608  0.78425684  0.40306871  1
  C  C143  1  0.76043043  0.79041776  0.47929151  1
  C  C144  1  0.75003560  0.89350415  0.51508398  1
  C  C145  1  0.76180681  0.90078884  0.58610150  1
  C  C146  1  0.78542163  0.80584122  0.62574710  1
  C  C147  1  0.79782190  0.81102351  0.69886988  1
  C  C148  1  0.82063852  0.71744576  0.73651338  1
  C  C149  1  0.83468774  0.72499247  0.81387295  1
  C  C150  1  0.83388793  0.61467053  0.70116039  1
  C  C151  1  0.82239999  0.60684022  0.63001408  1
  C  C152  1  0.79700237  0.70151427  0.59036693  1
  C  C153  1  0.78368323  0.69673999  0.51723418  1
  C  C154  1  0.78761084  0.86618536  0.35942059  1
  C  C155  1  0.77281227  0.86070816  0.28768777  1
  I  I156  1  0.25992332  0.93649004  0.99147685  1
  I  I157  1  0.27057735  0.53496542  0.01838620  1
  I  I158  1  0.75722955  0.08658272  0.00170622  1
  I  I159  1  0.77223441  0.45183951  0.97529790  1
  I  I160  1  0.05910003  0.25838044  0.00033798  1
  I  I161  1  0.90511237  0.76029839  1.00029655  1
  I  I162  1  0.43514327  0.23518251  0.99099727  1
  I  I163  1  0.53738721  0.73472428  0.01543344  1
  I  I164  1  0.99214322  0.00167037  0.83872782  1
  I  I165  1  0.06240817  0.99333413  0.17351373  1
  I  I166  1  0.06963017  0.52514997  0.84377573  1
  I  I167  1  0.00560869  0.50759808  0.17644363  1
  I  I168  1  0.53051734  0.91490324  0.83150646  1
  I  I169  1  0.50408474  1.00010723  0.16697438  1
  I  I170  1  0.50794694  0.47892436  0.82009192  1
  I  I171  1  0.54603695  0.48795504  0.15587103  1
  N  N172  1  0.24885207  0.31281692  0.85875572  1
  N  N173  1  0.22012998  0.28228618  0.14724419  1
  N  N174  1  0.30458960  0.74090169  0.85569189  1
  N  N175  1  0.28498103  0.78577386  0.14695437  1
  N  N176  1  0.68925035  0.23801097  0.14814071  1
  N  N177  1  0.69903841  0.25392904  0.85522816  1
  N  N178  1  0.76495740  0.67930448  0.14693127  1
  N  N179  1  0.73052031  0.70680538  0.85363162  1
