# generated using pymatgen
data_H17PbC14I4N2F
_symmetry_space_group_name_H-M   'P 1'
_cell_length_a   12.15853172
_cell_length_b   12.03282192
_cell_length_c   17.33853120
_cell_angle_alpha   90.81820675
_cell_angle_beta   90.18590237
_cell_angle_gamma   88.82093968
_symmetry_Int_Tables_number   1
_chemical_formula_structural   H17PbC14I4N2F
_chemical_formula_sum   'H68 Pb4 C56 I16 N8 F4'
_cell_volume   2535.84548238
_cell_formula_units_Z   4
loop_
 _symmetry_equiv_pos_site_id
 _symmetry_equiv_pos_as_xyz
  1  'x, y, z'
loop_
 _atom_site_type_symbol
 _atom_site_label
 _atom_site_symmetry_multiplicity
 _atom_site_fract_x
 _atom_site_fract_y
 _atom_site_fract_z
 _atom_site_occupancy
  H  H0  1  0.17148592  0.38010331  0.80769056  1
  H  H1  1  0.21644765  0.32135394  0.88943035  1
  H  H2  1  0.14572760  0.24720400  0.82646500  1
  H  H3  1  0.33097917  0.18681869  0.81740431  1
  H  H4  1  0.37360768  0.32711399  0.80948660  1
  H  H5  1  0.23068996  0.09546821  0.70704331  1
  H  H6  1  0.20697593  0.08424170  0.56528285  1
  H  H7  1  0.32032607  0.07467825  0.44535657  1
  H  H8  1  0.29804822  0.07162085  0.30337656  1
  H  H9  1  0.12159752  0.21098553  0.19897576  1
  H  H10  1  0.25817685  0.16079480  0.18600932  1
  H  H11  1  0.31284638  0.36027168  0.17705853  1
  H  H12  1  0.22263066  0.31577732  0.10936431  1
  H  H13  1  0.17796095  0.39552398  0.18234004  1
  H  H14  1  0.18813765  0.41138386  0.45246330  1
  H  H15  1  0.33762664  0.41344388  0.54538963  1
  H  H16  1  0.36150268  0.42385277  0.68709365  1
  H  H17  1  0.37385498  0.82187275  0.81140394  1
  H  H18  1  0.30363734  0.78854527  0.89093118  1
  H  H19  1  0.24318153  0.86239460  0.82271574  1
  H  H20  1  0.17656936  0.67593599  0.81742159  1
  H  H21  1  0.31476940  0.62466528  0.81059925  1
  H  H22  1  0.08820129  0.77201605  0.70778202  1
  H  H23  1  0.07925751  0.79401625  0.56595939  1
  H  H24  1  0.07501184  0.67860741  0.44604389  1
  H  H25  1  0.07167231  0.70375205  0.30498934  1
  H  H26  1  0.20908979  0.88265955  0.20264750  1
  H  H27  1  0.15774818  0.74829283  0.18787164  1
  H  H28  1  0.35787458  0.68338411  0.18060022  1
  H  H29  1  0.30979575  0.76981825  0.11082380  1
  H  H30  1  0.38973532  0.82053986  0.18025873  1
  H  H31  1  0.40352569  0.81014403  0.45421395  1
  H  H32  1  0.40992727  0.65978033  0.54606701  1
  H  H33  1  0.41864854  0.63783830  0.68794953  1
  H  H34  1  0.62396281  0.31822369  0.18663033  1
  H  H35  1  0.67645555  0.26008476  0.10619092  1
  H  H36  1  0.75389850  0.34293195  0.16087066  1
  H  H37  1  0.81865026  0.16169986  0.18235667  1
  H  H38  1  0.68183660  0.11396904  0.19111075  1
  H  H39  1  0.90583204  0.26603597  0.29138591  1
  H  H40  1  0.91549829  0.29236894  0.43323437  1
  H  H41  1  0.92360820  0.17684536  0.55138070  1
  H  H42  1  0.92712065  0.19513096  0.69369522  1
  H  H43  1  0.78554390  0.37180411  0.80343728  1
  H  H44  1  0.83964090  0.23490456  0.81252479  1
  H  H45  1  0.64159842  0.17393351  0.81881538  1
  H  H46  1  0.68566268  0.25630930  0.89071427  1
  H  H47  1  0.60570991  0.31052682  0.82196957  1
  H  H48  1  0.59169204  0.31414143  0.54969361  1
  H  H49  1  0.58850030  0.16372705  0.45384189  1
  H  H50  1  0.57921027  0.13789651  0.31199087  1
  H  H51  1  0.70663913  0.61474718  0.18392023  1
  H  H52  1  0.75709313  0.67916963  0.10621400  1
  H  H53  1  0.66091406  0.74124516  0.16032981  1
  H  H54  1  0.83329174  0.82546900  0.18611916  1
  H  H55  1  0.89480365  0.69110050  0.19618439  1
  H  H56  1  0.73126727  0.91338978  0.29469047  1
  H  H57  1  0.70431711  0.92271318  0.43605265  1
  H  H58  1  0.82338549  0.92510484  0.55590001  1
  H  H59  1  0.80521607  0.92846906  0.69789554  1
  H  H60  1  0.62599637  0.79216995  0.80269126  1
  H  H61  1  0.75890096  0.84584170  0.81474202  1
  H  H62  1  0.82466299  0.64277904  0.82137562  1
  H  H63  1  0.74525707  0.69352149  0.89321142  1
  H  H64  1  0.68952433  0.61140811  0.82619906  1
  H  H65  1  0.68434339  0.59686778  0.54865524  1
  H  H66  1  0.83544378  0.58803847  0.45499338  1
  H  H67  1  0.86293721  0.57932759  0.31357180  1
  Pb  Pb68  1  0.99044067  0.00445858  0.99790482  1
  Pb  Pb69  1  0.98716577  0.49271669  0.99246033  1
  Pb  Pb70  1  0.48019217  0.01027959  0.99005812  1
  Pb  Pb71  1  0.49084327  0.52032829  0.01521498  1
  C  C72  1  0.31019110  0.26792408  0.79249183  1
  C  C73  1  0.29698268  0.26061841  0.70650195  1
  C  C74  1  0.25480902  0.16487776  0.67139456  1
  C  C75  1  0.24181400  0.15860131  0.59163272  1
  C  C76  1  0.27068299  0.24804387  0.54504499  1
  C  C77  1  0.25627633  0.24275710  0.46033717  1
  C  C78  1  0.28521575  0.14731134  0.41660265  1
  C  C79  1  0.27262163  0.14541104  0.33664373  1
  C  C80  1  0.22899280  0.23732488  0.29696782  1
  C  C81  1  0.20840282  0.22893804  0.21157186  1
  C  C82  1  0.20043751  0.33045084  0.34219369  1
  C  C83  1  0.21349993  0.33571824  0.42147508  1
  C  C84  1  0.31298734  0.34387031  0.58069511  1
  C  C85  1  0.32617486  0.34997146  0.66042077  1
  C  C86  1  0.25786144  0.69170470  0.79313602  1
  C  C87  1  0.25354679  0.70325128  0.70715332  1
  C  C88  1  0.15831411  0.74652485  0.67208036  1
  C  C89  1  0.15325981  0.75843111  0.59242212  1
  C  C90  1  0.24368205  0.72776999  0.54597870  1
  C  C91  1  0.23908287  0.74192987  0.46151241  1
  C  C92  1  0.14598216  0.71377073  0.41770488  1
  C  C93  1  0.14416177  0.72764527  0.33804265  1
  C  C94  1  0.23369525  0.77179899  0.29882556  1
  C  C95  1  0.22596518  0.79403099  0.21387070  1
  C  C96  1  0.32455969  0.79927812  0.34424221  1
  C  C97  1  0.32983968  0.78495423  0.42314787  1
  C  C98  1  0.33943014  0.68507262  0.58152137  1
  C  C99  1  0.34430410  0.67265674  0.66122264  1
  C  C100  1  0.73704078  0.18200704  0.20614422  1
  C  C101  1  0.74155911  0.20149189  0.29191996  1
  C  C102  1  0.83613360  0.24389574  0.32711780  1
  C  C103  1  0.84166072  0.25803490  0.40694218  1
  C  C104  1  0.75264696  0.23004866  0.45390781  1
  C  C105  1  0.75797218  0.24360424  0.53886157  1
  C  C106  1  0.85211316  0.21233145  0.58136462  1
  C  C107  1  0.85427511  0.22261598  0.66159433  1
  C  C108  1  0.76368935  0.26632987  0.70277195  1
  C  C109  1  0.77078836  0.28404519  0.78868914  1
  C  C110  1  0.67212363  0.29781898  0.65877927  1
  C  C111  1  0.66652972  0.28695754  0.57932508  1
  C  C112  1  0.65775352  0.18793943  0.41830794  1
  C  C113  1  0.65238775  0.17351295  0.33849047  1
  C  C114  1  0.82143770  0.74233562  0.20951107  1
  C  C115  1  0.79855353  0.74573405  0.29454392  1
  C  C116  1  0.75385694  0.84184286  0.32983663  1
  C  C117  1  0.73933493  0.84723281  0.40954032  1
  C  C118  1  0.76832904  0.75619314  0.45585338  1
  C  C119  1  0.75545604  0.76140975  0.54072455  1
  C  C120  1  0.78768536  0.85441405  0.58466304  1
  C  C121  1  0.77757627  0.85634520  0.66479426  1
  C  C122  1  0.73297626  0.76698263  0.70449800  1
  C  C123  1  0.71355898  0.77584936  0.79009241  1
  C  C124  1  0.70119275  0.67634685  0.65900971  1
  C  C125  1  0.71198216  0.67076113  0.57960646  1
  C  C126  1  0.81109455  0.65911723  0.41989883  1
  C  C127  1  0.82658636  0.65413196  0.34039530  1
  I  I128  1  0.24016666  0.91015844  0.00902292  1
  I  I129  1  0.23846139  0.56653568  0.00825271  1
  I  I130  1  0.73749147  0.07376298  0.98674717  1
  I  I131  1  0.74058677  0.43030601  0.98887117  1
  I  I132  1  0.09355627  0.24339180  0.00427128  1
  I  I133  1  0.91735242  0.74510563  0.00405613  1
  I  I134  1  0.44038443  0.26702687  0.01150047  1
  I  I135  1  0.57563936  0.76474864  0.99697314  1
  I  I136  1  0.04527239  0.01891872  0.80923576  1
  I  I137  1  0.99364133  0.00489145  0.18013573  1
  I  I138  1  0.99290474  0.51355752  0.80190596  1
  I  I139  1  0.95051995  0.45578958  0.17446971  1
  I  I140  1  0.49608998  0.00603385  0.79851954  1
  I  I141  1  0.48764453  0.00323693  0.17228627  1
  I  I142  1  0.50332491  0.51133937  0.83613096  1
  I  I143  1  0.48860823  0.50678132  0.21025348  1
  N  N144  1  0.20522762  0.30762216  0.83072160  1
  N  N145  1  0.23368756  0.33235915  0.16809634  1
  N  N146  1  0.29799629  0.79639659  0.83134600  1
  N  N147  1  0.32782607  0.76303348  0.16938448  1
  N  N148  1  0.69440920  0.28210637  0.16280176  1
  N  N149  1  0.66916763  0.25335168  0.83185422  1
  N  N150  1  0.73021049  0.69051079  0.16281731  1
  N  N151  1  0.74617828  0.67430937  0.83464551  1
  F  F152  1  0.15633829  0.42293650  0.30702889  1
  F  F153  1  0.41440113  0.84409329  0.30976314  1
  F  F154  1  0.58171154  0.34245698  0.69586827  1
  F  F155  1  0.65559594  0.58690241  0.69428427  1
