# generated using pymatgen
data_H18PbC16S(I2N)2
_symmetry_space_group_name_H-M   'P 1'
_cell_length_a   12.45898092
_cell_length_b   12.29516060
_cell_length_c   18.77124701
_cell_angle_alpha   90.87312663
_cell_angle_beta   90.45416499
_cell_angle_gamma   89.72972434
_symmetry_Int_Tables_number   1
_chemical_formula_structural   H18PbC16S(I2N)2
_chemical_formula_sum   'H72 Pb4 C64 S4 I16 N8'
_cell_volume   2875.02211012
_cell_formula_units_Z   4
loop_
 _symmetry_equiv_pos_site_id
 _symmetry_equiv_pos_as_xyz
  1  'x, y, z'
loop_
 _atom_site_type_symbol
 _atom_site_label
 _atom_site_symmetry_multiplicity
 _atom_site_fract_x
 _atom_site_fract_y
 _atom_site_fract_z
 _atom_site_occupancy
  H  H0  1  0.34734583  0.14487816  0.84362753  1
  H  H1  1  0.25065938  0.12217756  0.90256040  1
  H  H2  1  0.24896858  0.05975770  0.82312790  1
  H  H3  1  0.11571061  0.20476154  0.83317632  1
  H  H4  1  0.22359070  0.29807839  0.84522238  1
  H  H5  1  0.30717486  0.37374139  0.74510036  1
  H  H6  1  0.32117602  0.39113068  0.61455920  1
  H  H7  1  0.18829967  0.43470109  0.52704302  1
  H  H8  1  0.20041504  0.48089590  0.39890450  1
  H  H9  1  0.25177907  0.40301939  0.26302668  1
  H  H10  1  0.40977393  0.19555301  0.17727086  1
  H  H11  1  0.31857549  0.30238331  0.15757539  1
  H  H12  1  0.28746693  0.13778852  0.09044435  1
  H  H13  1  0.17954269  0.16412445  0.14040299  1
  H  H14  1  0.26595387  0.06592699  0.16348192  1
  H  H15  1  0.27875549  0.10146320  0.48106305  1
  H  H16  1  0.13585544  0.09855461  0.58406156  1
  H  H17  1  0.11894507  0.08274869  0.71448275  1
  H  H18  1  0.15285819  0.64936067  0.84655081  1
  H  H19  1  0.12255734  0.74955063  0.90353702  1
  H  H20  1  0.06214654  0.74102911  0.82395800  1
  H  H21  1  0.19686049  0.88539212  0.83495991  1
  H  H22  1  0.29536502  0.78099801  0.84515430  1
  H  H23  1  0.37157070  0.69479611  0.74384857  1
  H  H24  1  0.38936533  0.68007251  0.61307212  1
  H  H25  1  0.43034520  0.81027569  0.52630958  1
  H  H26  1  0.47487391  0.79537541  0.39778461  1
  H  H27  1  0.39788682  0.74341141  0.26197745  1
  H  H28  1  0.19170558  0.58522357  0.17544032  1
  H  H29  1  0.29995757  0.67363537  0.15730614  1
  H  H30  1  0.14547261  0.71211045  0.08839336  1
  H  H31  1  0.16360400  0.81967833  0.14349722  1
  H  H32  1  0.06666621  0.72899507  0.15935408  1
  H  H33  1  0.10105889  0.72242663  0.48166147  1
  H  H34  1  0.09596203  0.86285004  0.58595063  1
  H  H35  1  0.07823040  0.87870736  0.71652959  1
  H  H36  1  0.87973692  0.17840556  0.16243906  1
  H  H37  1  0.86632534  0.26501251  0.09449038  1
  H  H38  1  0.93895668  0.30152013  0.16492227  1
  H  H39  1  0.77898751  0.39908755  0.16926752  1
  H  H40  1  0.70246412  0.27910737  0.15609533  1
  H  H41  1  0.62726509  0.19914748  0.25484837  1
  H  H42  1  0.61027868  0.17998498  0.38519305  1
  H  H43  1  0.56575443  0.31046638  0.47528064  1
  H  H44  1  0.52226683  0.30012729  0.60402766  1
  H  H45  1  0.60292638  0.25765076  0.73998582  1
  H  H46  1  0.82051473  0.10462172  0.82261842  1
  H  H47  1  0.70672737  0.18647271  0.84371746  1
  H  H48  1  0.90103915  0.22134642  0.89654279  1
  H  H49  1  0.81432111  0.32280084  0.88506386  1
  H  H50  1  0.91212356  0.30293935  0.82628331  1
  H  H51  1  0.89692639  0.22722182  0.51827614  1
  H  H52  1  0.89738669  0.36943843  0.41754913  1
  H  H53  1  0.91328580  0.39049637  0.28744940  1
  H  H54  1  0.82105245  0.87721005  0.16313585  1
  H  H55  1  0.73770660  0.86008146  0.09305478  1
  H  H56  1  0.69916086  0.93832955  0.16087480  1
  H  H57  1  0.60244696  0.77934304  0.16750482  1
  H  H58  1  0.71922540  0.69820562  0.15602325  1
  H  H59  1  0.79884714  0.62273630  0.25493214  1
  H  H60  1  0.81954387  0.60608328  0.38526595  1
  H  H61  1  0.69218663  0.56452858  0.47388182  1
  H  H62  1  0.70152040  0.52081834  0.60228937  1
  H  H63  1  0.74407805  0.60261523  0.73937438  1
  H  H64  1  0.89078961  0.82757206  0.82638543  1
  H  H65  1  0.81637820  0.70785641  0.84459274  1
  H  H66  1  0.77051943  0.90082576  0.89934299  1
  H  H67  1  0.67451743  0.81077019  0.88337996  1
  H  H68  1  0.69208038  0.91231290  0.82694097  1
  H  H69  1  0.77782736  0.89887140  0.51901084  1
  H  H70  1  0.63929259  0.90291103  0.41626695  1
  H  H71  1  0.61543510  0.91765635  0.28610155  1
  Pb  Pb72  1  0.00637392  0.99416922  0.01636924  1
  Pb  Pb73  1  0.00112667  0.49980136  0.99104745  1
  Pb  Pb74  1  0.50737990  0.01210529  0.99083192  1
  Pb  Pb75  1  0.50355125  0.50123213  0.99028486  1
  C  C76  1  0.19847943  0.22279046  0.81810966  1
  C  C77  1  0.21127973  0.22790180  0.73877098  1
  C  C78  1  0.26870275  0.31384614  0.70984002  1
  C  C79  1  0.27671037  0.32325646  0.63637990  1
  C  C80  1  0.22870713  0.24690245  0.58970465  1
  C  C81  1  0.23298169  0.26566079  0.51208137  1
  C  C82  1  0.21125773  0.37244023  0.48802651  1
  C  C83  1  0.21725519  0.39852119  0.41678412  1
  C  C84  1  0.24696497  0.31769767  0.36693034  1
  C  C85  1  0.26199547  0.32767409  0.29209545  1
  C  C86  1  0.29584580  0.23334410  0.25999515  1
  C  C87  1  0.32667746  0.22383766  0.18398754  1
  C  C88  1  0.26870510  0.21042608  0.39086369  1
  C  C89  1  0.26042383  0.18346190  0.46289537  1
  C  C90  1  0.17455835  0.15843905  0.61915017  1
  C  C91  1  0.16527967  0.14961057  0.69282332  1
  C  C92  1  0.21963192  0.80246441  0.81874369  1
  C  C93  1  0.22499732  0.78916693  0.73925214  1
  C  C94  1  0.31160717  0.73263934  0.70926999  1
  C  C95  1  0.32138434  0.72438495  0.63565565  1
  C  C96  1  0.24494155  0.77163306  0.58988481  1
  C  C97  1  0.26326218  0.76696806  0.51210588  1
  C  C98  1  0.36847212  0.78755703  0.48756036  1
  C  C99  1  0.39363925  0.78029197  0.41605671  1
  C  C100  1  0.31366560  0.75091913  0.36636872  1
  C  C101  1  0.32354546  0.73436613  0.29135835  1
  C  C102  1  0.23030995  0.70085404  0.25937555  1
  C  C103  1  0.22147797  0.66857397  0.18304203  1
  C  C104  1  0.20782489  0.73082173  0.39068252  1
  C  C105  1  0.18184662  0.73992160  0.46308210  1
  C  C106  1  0.15601627  0.82492056  0.62034031  1
  C  C107  1  0.14642585  0.83405722  0.69415343  1
  C  C108  1  0.77348871  0.31280209  0.18297426  1
  C  C109  1  0.77073433  0.29639988  0.26202148  1
  C  C110  1  0.68652821  0.23660371  0.29055784  1
  C  C111  1  0.67693115  0.22619602  0.36387721  1
  C  C112  1  0.75175770  0.27435458  0.41097896  1
  C  C113  1  0.73357046  0.26897703  0.48863983  1
  C  C114  1  0.62810024  0.28902359  0.51371727  1
  C  C115  1  0.60354771  0.28418066  0.58532917  1
  C  C116  1  0.68458481  0.25742268  0.63462587  1
  C  C117  1  0.67639004  0.24519704  0.70983370  1
  C  C118  1  0.77085160  0.21425215  0.74092029  1
  C  C119  1  0.78459042  0.18574711  0.81699611  1
  C  C120  1  0.79046589  0.23691051  0.60952511  1
  C  C121  1  0.81577485  0.24392091  0.53714360  1
  C  C122  1  0.83861821  0.33079638  0.38200713  1
  C  C123  1  0.84755087  0.34242321  0.30851595  1
  C  C124  1  0.68770938  0.77194018  0.18197608  1
  C  C125  1  0.70531434  0.77046439  0.26124814  1
  C  C126  1  0.76335793  0.68400729  0.29034469  1
  C  C127  1  0.77489791  0.67475980  0.36372201  1
  C  C128  1  0.72973946  0.75234923  0.41054234  1
  C  C129  1  0.73513781  0.73396392  0.48821601  1
  C  C130  1  0.71424593  0.62755527  0.51269746  1
  C  C131  1  0.71865156  0.60281019  0.58429532  1
  C  C132  1  0.74565231  0.68476104  0.63423864  1
  C  C133  1  0.75696361  0.67678599  0.70967981  1
  C  C134  1  0.78734295  0.77240080  0.74164209  1
  C  C135  1  0.81323354  0.78690632  0.81845585  1
  C  C136  1  0.76688162  0.79155736  0.60978701  1
  C  C137  1  0.76055090  0.81703583  0.53736480  1
  C  C138  1  0.67566724  0.84182848  0.38102565  1
  C  C139  1  0.66249028  0.85025618  0.30743699  1
  S  S140  1  0.31042218  0.12674743  0.32037217  1
  S  S141  1  0.12488366  0.68913693  0.32015733  1
  S  S142  1  0.87524755  0.20011604  0.67943523  1
  S  S143  1  0.80315684  0.87750062  0.68058356  1
  I  I144  1  0.25186439  0.92687751  0.00632315  1
  I  I145  1  0.24133507  0.57929817  0.99305478  1
  I  I146  1  0.75692372  0.07406124  0.00707415  1
  I  I147  1  0.75101528  0.42385456  0.99279713  1
  I  I148  1  0.07003761  0.24767098  0.00980573  1
  I  I149  1  0.92136654  0.75219083  0.00380341  1
  I  I150  1  0.41024999  0.24896174  0.99429503  1
  I  I151  1  0.56960563  0.75567777  0.98957205  1
  I  I152  1  0.00632640  0.00384915  0.84768798  1
  I  I153  1  0.00211615  0.99626470  0.18951647  1
  I  I154  1  0.00584647  0.48894386  0.81776566  1
  I  I155  1  0.98120803  0.51663491  0.16321221  1
  I  I156  1  0.51317259  0.01713929  0.81739582  1
  I  I157  1  0.49753623  0.99564822  0.16220309  1
  I  I158  1  0.48912859  0.49254825  0.82087338  1
  I  I159  1  0.49553597  0.50383302  0.16013428  1
  N  N160  1  0.26528950  0.13226118  0.84888188  1
  N  N161  1  0.25963526  0.14272219  0.14252988  1
  N  N162  1  0.13436571  0.73165048  0.85009493  1
  N  N163  1  0.14428548  0.73827323  0.14147468  1
  N  N164  1  0.87033944  0.25964845  0.14944465  1
  N  N165  1  0.85765003  0.26204059  0.85790995  1
  N  N166  1  0.74134494  0.86758931  0.14799663  1
  N  N167  1  0.73359648  0.85697916  0.85853869  1
