# generated using pymatgen
data_H18PbC14(I2N)2
_symmetry_space_group_name_H-M   'P 1'
_cell_length_a   12.80581481
_cell_length_b   12.39014744
_cell_length_c   16.11842620
_cell_angle_alpha   88.68411328
_cell_angle_beta   87.36042372
_cell_angle_gamma   89.16191039
_symmetry_Int_Tables_number   1
_chemical_formula_structural   H18PbC14(I2N)2
_chemical_formula_sum   'H72 Pb4 C56 I16 N8'
_cell_volume   2553.82218418
_cell_formula_units_Z   4
loop_
 _symmetry_equiv_pos_site_id
 _symmetry_equiv_pos_as_xyz
  1  'x, y, z'
loop_
 _atom_site_type_symbol
 _atom_site_label
 _atom_site_symmetry_multiplicity
 _atom_site_fract_x
 _atom_site_fract_y
 _atom_site_fract_z
 _atom_site_occupancy
  H  H0  1  0.21986269  0.27679046  0.89432086  1
  H  H1  1  0.20692328  0.17021687  0.83247737  1
  H  H2  1  0.31288813  0.25035869  0.82220204  1
  H  H3  1  0.19447038  0.40647916  0.79127686  1
  H  H4  1  0.09376927  0.31067426  0.78877930  1
  H  H5  1  0.13851395  0.14432051  0.68904223  1
  H  H6  1  0.18346024  0.10689335  0.54166128  1
  H  H7  1  0.36190124  0.08111397  0.47175391  1
  H  H8  1  0.41619083  0.02205921  0.32902978  1
  H  H9  1  0.37059953  0.13451312  0.20658654  1
  H  H10  1  0.32730566  0.32055661  0.15647621  1
  H  H11  1  0.24604319  0.40760260  0.21710184  1
  H  H12  1  0.17055058  0.30855864  0.10210946  1
  H  H13  1  0.09945050  0.30825513  0.19075231  1
  H  H14  1  0.16622021  0.19588920  0.16332076  1
  H  H15  1  0.22385642  0.37062748  0.36848056  1
  H  H16  1  0.32689025  0.41892418  0.51231941  1
  H  H17  1  0.28195386  0.45591632  0.66028061  1
  H  H18  1  0.28123369  0.77162448  0.89376180  1
  H  H19  1  0.17552158  0.77988591  0.83563840  1
  H  H20  1  0.25994557  0.67759862  0.82418208  1
  H  H21  1  0.39941757  0.81261730  0.78465772  1
  H  H22  1  0.29627620  0.90931373  0.78358225  1
  H  H23  1  0.14120782  0.86842363  0.68651062  1
  H  H24  1  0.10425680  0.81668129  0.54376771  1
  H  H25  1  0.08385540  0.63153894  0.48082143  1
  H  H26  1  0.03281942  0.57728934  0.34002577  1
  H  H27  1  0.14483800  0.62357965  0.21607234  1
  H  H28  1  0.33186453  0.67069699  0.16481540  1
  H  H29  1  0.40627035  0.75692963  0.22427471  1
  H  H30  1  0.32893426  0.85022790  0.11175582  1
  H  H31  1  0.27356652  0.89996542  0.19918227  1
  H  H32  1  0.20846613  0.81447937  0.14162796  1
  H  H33  1  0.36401405  0.77387359  0.37176564  1
  H  H34  1  0.40982622  0.66793094  0.51639833  1
  H  H35  1  0.44552824  0.71714094  0.66064363  1
  H  H36  1  0.71694787  0.24471282  0.11097653  1
  H  H37  1  0.82104638  0.24892266  0.17142628  1
  H  H38  1  0.72784050  0.15412765  0.18805457  1
  H  H39  1  0.59740344  0.30003230  0.21366896  1
  H  H40  1  0.70285328  0.39125312  0.20670956  1
  H  H41  1  0.85034101  0.36340881  0.30974089  1
  H  H42  1  0.88679263  0.32506367  0.45666122  1
  H  H43  1  0.92416999  0.16131205  0.52691368  1
  H  H44  1  0.98429224  0.11587950  0.66809755  1
  H  H45  1  0.86651674  0.14077115  0.79143253  1
  H  H46  1  0.67607155  0.15808741  0.84127057  1
  H  H47  1  0.59126450  0.24475892  0.78539571  1
  H  H48  1  0.67711061  0.32121086  0.90324160  1
  H  H49  1  0.68880612  0.39443245  0.81485724  1
  H  H50  1  0.79214555  0.31880814  0.84995488  1
  H  H51  1  0.62617439  0.26523380  0.63460695  1
  H  H52  1  0.58745370  0.17266147  0.49374702  1
  H  H53  1  0.55024518  0.21283083  0.34649908  1
  H  H54  1  0.74563060  0.69685187  0.10932207  1
  H  H55  1  0.73829093  0.81199948  0.16284068  1
  H  H56  1  0.83111669  0.71665236  0.18210530  1
  H  H57  1  0.68341615  0.58910614  0.21717393  1
  H  H58  1  0.60199341  0.70560781  0.21554056  1
  H  H59  1  0.62555708  0.85143854  0.32295973  1
  H  H60  1  0.67454457  0.88860018  0.46662170  1
  H  H61  1  0.87905847  0.90298223  0.51736402  1
  H  H62  1  0.94648526  0.94946105  0.65462386  1
  H  H63  1  0.89472438  0.84294842  0.78066388  1
  H  H64  1  0.83096189  0.67101743  0.83698589  1
  H  H65  1  0.74925938  0.58700993  0.78075849  1
  H  H66  1  0.66851018  0.68963294  0.89731501  1
  H  H67  1  0.60594782  0.69619644  0.80885435  1
  H  H68  1  0.67470543  0.80309551  0.83682974  1
  H  H69  1  0.71515166  0.63383805  0.63311046  1
  H  H70  1  0.83238264  0.57987975  0.48010985  1
  H  H71  1  0.78681719  0.54443930  0.33529727  1
  Pb  Pb72  1  0.00824391  0.99512135  0.01263822  1
  Pb  Pb73  1  0.98665554  0.51516614  0.98026215  1
  Pb  Pb74  1  0.52917079  0.99610252  0.98201650  1
  Pb  Pb75  1  0.47876097  0.49574456  0.99283591  1
  C  C76  1  0.17738172  0.32369602  0.77437384  1
  C  C77  1  0.20732241  0.30231341  0.68497158  1
  C  C78  1  0.18010656  0.20456865  0.65033816  1
  C  C79  1  0.20578579  0.18330963  0.56766705  1
  C  C80  1  0.25893358  0.25985254  0.51637036  1
  C  C81  1  0.28941406  0.22968015  0.42996420  1
  C  C82  1  0.34204285  0.13053297  0.41766495  1
  C  C83  1  0.37134882  0.09673950  0.33796679  1
  C  C84  1  0.34622949  0.16023513  0.26903628  1
  C  C85  1  0.29145714  0.25808585  0.27979230  1
  C  C86  1  0.26313856  0.32266581  0.20381836  1
  C  C87  1  0.26509866  0.29352461  0.36011316  1
  C  C88  1  0.28451327  0.35876837  0.55061916  1
  C  C89  1  0.25966813  0.37947634  0.63422217  1
  C  C90  1  0.31711796  0.82479143  0.77103474  1
  C  C91  1  0.29558479  0.79532939  0.68365946  1
  C  C92  1  0.19989553  0.82347687  0.64963647  1
  C  C93  1  0.17923268  0.79464886  0.56929978  1
  C  C94  1  0.25418792  0.73832502  0.52002115  1
  C  C95  1  0.22732390  0.70596765  0.43582062  1
  C  C96  1  0.13344448  0.65142545  0.42588136  1
  C  C97  1  0.10480487  0.62127411  0.34738690  1
  C  C98  1  0.16818861  0.64728068  0.27734416  1
  C  C99  1  0.26095883  0.70386869  0.28577812  1
  C  C100  1  0.32642173  0.73583957  0.20977479  1
  C  C101  1  0.29102895  0.73101627  0.36499573  1
  C  C102  1  0.35094033  0.71245994  0.55342961  1
  C  C103  1  0.37098705  0.73997414  0.63465573  1
  C  C104  1  0.67954899  0.30979520  0.22756671  1
  C  C105  1  0.69878414  0.28867032  0.31762512  1
  C  C106  1  0.79282429  0.32080602  0.34988089  1
  C  C107  1  0.81347057  0.29892766  0.43232068  1
  C  C108  1  0.74080899  0.24420642  0.48541922  1
  C  C109  1  0.77105131  0.21607799  0.57074125  1
  C  C110  1  0.87255077  0.17513661  0.58146859  1
  C  C111  1  0.90640241  0.14941030  0.66030014  1
  C  C112  1  0.84015789  0.16399808  0.72995184  1
  C  C113  1  0.73954474  0.20680768  0.72069113  1
  C  C114  1  0.67322579  0.22733910  0.79784470  1
  C  C115  1  0.70467069  0.23160674  0.64139017  1
  C  C116  1  0.64501547  0.21534169  0.45372572  1
  C  C117  1  0.62438164  0.23708636  0.37058632  1
  C  C118  1  0.67984239  0.67532958  0.23058360  1
  C  C119  1  0.70499153  0.69645180  0.31873496  1
  C  C120  1  0.67194480  0.79228635  0.35705840  1
  C  C121  1  0.69930630  0.81313873  0.43763414  1
  C  C122  1  0.75825023  0.73764395  0.48273329  1
  C  C123  1  0.79323929  0.76507145  0.56595055  1
  C  C124  1  0.85721289  0.85514609  0.57301539  1
  C  C125  1  0.89445769  0.88166050  0.64968356  1
  C  C126  1  0.86555523  0.82152685  0.72072082  1
  C  C127  1  0.79996879  0.73296692  0.71495963  1
  C  C128  1  0.76852798  0.67097833  0.79279605  1
  C  C129  1  0.76539651  0.70379834  0.63759569  1
  C  C130  1  0.78716984  0.63963560  0.44560931  1
  C  C131  1  0.76171847  0.61981377  0.36419087  1
  I  I132  1  0.28887387  0.06254430  0.01690127  1
  I  I133  1  0.23388393  0.44953722  0.98798312  1
  I  I134  1  0.78482758  0.91371798  0.97533924  1
  I  I135  1  0.73084694  0.54328525  0.00319628  1
  I  I136  1  0.95013361  0.26598643  0.95537143  1
  I  I137  1  0.08012341  0.75386577  0.03631148  1
  I  I138  1  0.55847398  0.24866645  0.01594687  1
  I  I139  1  0.44533547  0.75158057  0.98754074  1
  I  I140  1  0.08451646  0.00230188  0.82299901  1
  I  I141  1  0.02481270  0.03743446  0.20565096  1
  I  I142  1  0.03789086  0.58209126  0.79494801  1
  I  I143  1  0.95630372  0.46572310  0.18096368  1
  I  I144  1  0.55593553  0.97533684  0.78616819  1
  I  I145  1  0.57594962  0.97119197  0.17916808  1
  I  I146  1  0.50881105  0.50232076  0.78077378  1
  I  I147  1  0.47296578  0.49720957  0.18244933  1
  N  N148  1  0.23340517  0.24960287  0.83411207  1
  N  N149  1  0.16904588  0.27961450  0.16322303  1
  N  N150  1  0.25412528  0.75915210  0.83496012  1
  N  N151  1  0.28144092  0.83193824  0.16401863  1
  N  N152  1  0.74194142  0.23394608  0.17130768  1
  N  N153  1  0.71206712  0.32264842  0.84330402  1
  N  N154  1  0.75443235  0.72970099  0.16762617  1
  N  N155  1  0.67330396  0.71929242  0.83638149  1
