# generated using pymatgen
data_H20PbC18S(I2N)2
_symmetry_space_group_name_H-M   'P 1'
_cell_length_a   12.56270508
_cell_length_b   12.48398320
_cell_length_c   20.88269109
_cell_angle_alpha   90.98741359
_cell_angle_beta   92.14051517
_cell_angle_gamma   89.03637988
_symmetry_Int_Tables_number   1
_chemical_formula_structural   H20PbC18S(I2N)2
_chemical_formula_sum   'H80 Pb4 C72 S4 I16 N8'
_cell_volume   3271.88671432
_cell_formula_units_Z   4
loop_
 _symmetry_equiv_pos_site_id
 _symmetry_equiv_pos_as_xyz
  1  'x, y, z'
loop_
 _atom_site_type_symbol
 _atom_site_label
 _atom_site_symmetry_multiplicity
 _atom_site_fract_x
 _atom_site_fract_y
 _atom_site_fract_z
 _atom_site_occupancy
  H  H0  1  0.27256938  0.18429876  0.91201660  1
  H  H1  1  0.23662558  0.10395645  0.85017334  1
  H  H2  1  0.17566493  0.22367475  0.85901217  1
  H  H3  1  0.40495405  0.18473473  0.83666233  1
  H  H4  1  0.34601373  0.31424470  0.84625159  1
  H  H5  1  0.34890689  0.06918514  0.73846882  1
  H  H6  1  0.31054498  0.07495327  0.62149535  1
  H  H7  1  0.32141507  0.39938990  0.54231044  1
  H  H8  1  0.28972373  0.40826678  0.42528808  1
  H  H9  1  0.16014869  0.44162597  0.34046329  1
  H  H10  1  0.15047742  0.41604783  0.21503111  1
  H  H11  1  0.13226266  0.26213719  0.13031850  1
  H  H12  1  0.14280547  0.12732200  0.15486716  1
  H  H13  1  0.32442048  0.27158095  0.13145708  1
  H  H14  1  0.28456254  0.16382212  0.08916191  1
  H  H15  1  0.34092149  0.14951547  0.16146457  1
  H  H16  1  0.12914250  0.10567097  0.42619694  1
  H  H17  1  0.16290827  0.09576580  0.54324707  1
  H  H18  1  0.22441391  0.41005030  0.63883587  1
  H  H19  1  0.26356843  0.40421997  0.75574771  1
  H  H20  1  0.18357074  0.73974825  0.91054760  1
  H  H21  1  0.11892894  0.79194267  0.84629712  1
  H  H22  1  0.24399212  0.83103327  0.86603566  1
  H  H23  1  0.19250664  0.60517539  0.83435625  1
  H  H24  1  0.32080386  0.66230092  0.84484003  1
  H  H25  1  0.07472553  0.65856720  0.73587773  1
  H  H26  1  0.07785059  0.69163547  0.61944970  1
  H  H27  1  0.40155900  0.67576538  0.54291892  1
  H  H28  1  0.41264609  0.70784528  0.42721664  1
  H  H29  1  0.44415231  0.83711276  0.34567287  1
  H  H30  1  0.41770502  0.85129273  0.22003342  1
  H  H31  1  0.26890014  0.87103523  0.13529294  1
  H  H32  1  0.13550389  0.88221340  0.16000307  1
  H  H33  1  0.25038463  0.68302852  0.12078248  1
  H  H34  1  0.14396316  0.74140647  0.08709373  1
  H  H35  1  0.13273784  0.67963273  0.15586431  1
  H  H36  1  0.10772544  0.87155396  0.42699586  1
  H  H37  1  0.09573168  0.83749184  0.54275408  1
  H  H38  1  0.40992021  0.77285724  0.64029509  1
  H  H39  1  0.40643889  0.73882431  0.75636253  1
  H  H40  1  0.82378837  0.28614931  0.09427400  1
  H  H41  1  0.86678296  0.33659727  0.16399903  1
  H  H42  1  0.73934006  0.35871736  0.13990290  1
  H  H43  1  0.82112820  0.13662724  0.15730417  1
  H  H44  1  0.68652229  0.18345230  0.15180818  1
  H  H45  1  0.93176900  0.16589552  0.26037941  1
  H  H46  1  0.92795185  0.18847637  0.37830484  1
  H  H47  1  0.60488233  0.17244514  0.45477446  1
  H  H48  1  0.58915994  0.20613014  0.57079196  1
  H  H49  1  0.55002613  0.33392670  0.65422632  1
  H  H50  1  0.57341343  0.35259655  0.78000226  1
  H  H51  1  0.72460298  0.37709723  0.86712639  1
  H  H52  1  0.85778759  0.37960685  0.84242892  1
  H  H53  1  0.73681732  0.18558717  0.87551105  1
  H  H54  1  0.84559937  0.23714109  0.91171489  1
  H  H55  1  0.85317933  0.17721530  0.84013480  1
  H  H56  1  0.88854845  0.37057588  0.57646400  1
  H  H57  1  0.90534858  0.33453945  0.46049492  1
  H  H58  1  0.59469511  0.27622895  0.36184267  1
  H  H59  1  0.59881513  0.25340901  0.24411700  1
  H  H60  1  0.75210090  0.83952275  0.09103519  1
  H  H61  1  0.69266683  0.88861696  0.15546727  1
  H  H62  1  0.65956838  0.76949399  0.12493405  1
  H  H63  1  0.88358015  0.81325016  0.16611469  1
  H  H64  1  0.82371245  0.68592896  0.15536688  1
  H  H65  1  0.83779894  0.93092558  0.26335134  1
  H  H66  1  0.80994607  0.92629508  0.37970069  1
  H  H67  1  0.82382278  0.60005498  0.45955254  1
  H  H68  1  0.79127328  0.58609731  0.57467390  1
  H  H69  1  0.66187023  0.55242472  0.65561010  1
  H  H70  1  0.64214705  0.57770721  0.78007411  1
  H  H71  1  0.61956251  0.73160060  0.86440589  1
  H  H72  1  0.62675207  0.86674621  0.83992027  1
  H  H73  1  0.81102464  0.72161983  0.87472375  1
  H  H74  1  0.76851924  0.83452995  0.91230455  1
  H  H75  1  0.82491858  0.84186644  0.84217577  1
  H  H76  1  0.62776419  0.89255525  0.57122651  1
  H  H77  1  0.66265408  0.90755914  0.45625305  1
  H  H78  1  0.71883831  0.59508398  0.36089463  1
  H  H79  1  0.74457217  0.60055821  0.24424576  1
  Pb  Pb80  1  -0.00984992  0.99923880  0.98787175  1
  Pb  Pb81  1  0.00717592  0.50970948  0.99525184  1
  Pb  Pb82  1  0.48691830  0.98975736  0.00270907  1
  Pb  Pb83  1  0.50808868  0.49078052  0.01032185  1
  C  C84  1  0.33341102  0.23367258  0.82577991  1
  C  C85  1  0.30679403  0.23584781  0.75519226  1
  C  C86  1  0.31979898  0.14357333  0.71671496  1
  C  C87  1  0.29811515  0.14684951  0.65093381  1
  C  C88  1  0.26411987  0.24276701  0.62165312  1
  C  C89  1  0.24370310  0.24732794  0.55164190  1
  C  C90  1  0.27743727  0.33567957  0.51724539  1
  C  C91  1  0.25946855  0.34098182  0.45140495  1
  C  C92  1  0.20577959  0.25855676  0.41719899  1
  C  C93  1  0.18843525  0.26976917  0.34802315  1
  C  C94  1  0.17112987  0.36490875  0.31580315  1
  C  C95  1  0.16625755  0.35145145  0.24862355  1
  C  C96  1  0.17863012  0.24619752  0.22892322  1
  C  C97  1  0.17819522  0.20679139  0.16148096  1
  C  C98  1  0.17223830  0.16989285  0.45142774  1
  C  C99  1  0.19131354  0.16432156  0.51743830  1
  C  C100  1  0.25182487  0.33506413  0.66045007  1
  C  C101  1  0.27255595  0.33162522  0.72641013  1
  C  C102  1  0.23990073  0.67572657  0.82479533  1
  C  C103  1  0.23992248  0.69875993  0.75442816  1
  C  C104  1  0.14781351  0.68585754  0.71508319  1
  C  C105  1  0.14963421  0.70447337  0.64949084  1
  C  C106  1  0.24387094  0.73587590  0.62126451  1
  C  C107  1  0.24811700  0.75485420  0.55174140  1
  C  C108  1  0.33752276  0.72015977  0.51792460  1
  C  C109  1  0.34407991  0.73834799  0.45281646  1
  C  C110  1  0.26177168  0.79310323  0.41861515  1
  C  C111  1  0.27376040  0.81117880  0.35027704  1
  C  C112  1  0.36796756  0.82804281  0.31974794  1
  C  C113  1  0.35432168  0.83505189  0.25255811  1
  C  C114  1  0.24979903  0.82383940  0.23131299  1
  C  C115  1  0.20912933  0.83354058  0.16419438  1
  C  C116  1  0.17189887  0.82742538  0.45215405  1
  C  C117  1  0.16516976  0.80822430  0.51743173  1
  C  C118  1  0.33606974  0.74760026  0.66094035  1
  C  C119  1  0.33416327  0.72931802  0.72642704  1
  C  C120  1  0.76618004  0.20065344  0.17227024  1
  C  C121  1  0.76561867  0.21099855  0.24399825  1
  C  C122  1  0.85796510  0.19199336  0.28242888  1
  C  C123  1  0.85584422  0.20429611  0.34895245  1
  C  C124  1  0.76117896  0.23496310  0.37872659  1
  C  C125  1  0.75593423  0.25168858  0.44877422  1
  C  C126  1  0.66673535  0.21711808  0.48113452  1
  C  C127  1  0.65748633  0.23632026  0.54634364  1
  C  C128  1  0.73681751  0.29199762  0.58209510  1
  C  C129  1  0.72210943  0.31117399  0.65047467  1
  C  C130  1  0.62628656  0.32684437  0.68047851  1
  C  C131  1  0.63822030  0.33573840  0.74782050  1
  C  C132  1  0.74295836  0.32738232  0.76970078  1
  C  C133  1  0.78291836  0.33534635  0.83726737  1
  C  C134  1  0.82667625  0.32578227  0.55007539  1
  C  C135  1  0.83619697  0.30544579  0.48468069  1
  C  C136  1  0.66863073  0.25101205  0.33986263  1
  C  C137  1  0.67077148  0.23906670  0.27367262  1
  C  C138  1  0.81237462  0.76696701  0.17520479  1
  C  C139  1  0.79149800  0.76626426  0.24551491  1
  C  C140  1  0.80943669  0.85759505  0.28443055  1
  C  C141  1  0.79400938  0.85489933  0.35018720  1
  C  C142  1  0.76179980  0.76022817  0.37909647  1
  C  C143  1  0.74505332  0.75462221  0.44880422  1
  C  C144  1  0.77959062  0.66402979  0.48358894  1
  C  C145  1  0.76120670  0.65590641  0.54852754  1
  C  C146  1  0.70630080  0.73772332  0.58172187  1
  C  C147  1  0.68709311  0.72428560  0.64989076  1
  C  C148  1  0.66932336  0.62917467  0.68080524  1
  C  C149  1  0.65909276  0.64214332  0.74760697  1
  C  C150  1  0.66869407  0.74712306  0.76837124  1
  C  C151  1  0.66441073  0.78707587  0.83569412  1
  C  C152  1  0.67238973  0.82878985  0.54719922  1
  C  C153  1  0.69195489  0.83717701  0.48219295  1
  C  C154  1  0.74502754  0.66900408  0.33973720  1
  C  C155  1  0.75902001  0.67201362  0.27396106  1
  S  S156  1  0.19629928  0.16286467  0.29415527  1
  S  S157  1  0.16753143  0.80588956  0.29491390  1
  S  S158  1  0.82729194  0.30973524  0.70649974  1
  S  S159  1  0.68985077  0.83041462  0.70467778  1
  I  I160  1  0.23403397  0.98902517  0.01486423  1
  I  I161  1  0.24774998  0.56881288  0.99805923  1
  I  I162  1  0.73076941  0.02131568  0.97311491  1
  I  I163  1  0.74981424  0.50975135  0.99240465  1
  I  I164  1  0.98475077  0.25416283  0.00172709  1
  I  I165  1  0.95497252  0.75714898  0.00694457  1
  I  I166  1  0.42942471  0.24460305  0.99321097  1
  I  I167  1  0.50366804  0.74625042  0.04065234  1
  I  I168  1  0.98937804  0.99562421  0.82869780  1
  I  I169  1  0.96893728  0.00247574  0.13788002  1
  I  I170  1  0.98080842  0.54835788  0.84495519  1
  I  I171  1  0.99066560  0.52319406  0.15112898  1
  I  I172  1  0.40958951  0.94290824  0.85410801  1
  I  I173  1  0.51790871  0.02968340  0.15547015  1
  I  I174  1  0.47932345  0.50447781  0.86068127  1
  I  I175  1  0.55191191  0.44961550  0.16096059  1
  N  N176  1  0.24739628  0.18330657  0.86376290  1
  N  N177  1  0.28846196  0.19839795  0.13490374  1
  N  N178  1  0.19240361  0.76595762  0.86426242  1
  N  N179  1  0.18326678  0.72809284  0.13092646  1
  N  N180  1  0.80152426  0.30166404  0.14082907  1
  N  N181  1  0.80499451  0.22722870  0.86732403  1
  N  N182  1  0.72408385  0.81920772  0.13503927  1
  N  N183  1  0.77427215  0.79567605  0.86805667  1
