# generated using pymatgen
data_H17PbC13I4N3
_symmetry_space_group_name_H-M   'P 1'
_cell_length_a   12.25940894
_cell_length_b   12.28299287
_cell_length_c   16.88254073
_cell_angle_alpha   89.87363749
_cell_angle_beta   89.13134737
_cell_angle_gamma   88.84870327
_symmetry_Int_Tables_number   1
_chemical_formula_structural   H17PbC13I4N3
_chemical_formula_sum   'H68 Pb4 C52 I16 N12'
_cell_volume   2541.40076967
_cell_formula_units_Z   4
loop_
 _symmetry_equiv_pos_site_id
 _symmetry_equiv_pos_as_xyz
  1  'x, y, z'
loop_
 _atom_site_type_symbol
 _atom_site_label
 _atom_site_symmetry_multiplicity
 _atom_site_fract_x
 _atom_site_fract_y
 _atom_site_fract_z
 _atom_site_occupancy
  H  H0  1  0.23043644  0.27996745  0.89272631  1
  H  H1  1  0.19554288  0.19577777  0.82022196  1
  H  H2  1  0.15096171  0.32686992  0.82167039  1
  H  H3  1  0.38597683  0.26212462  0.80550829  1
  H  H4  1  0.32883728  0.39622788  0.80003592  1
  H  H5  1  0.36714497  0.13185935  0.69750455  1
  H  H6  1  0.33329145  0.09977204  0.55554801  1
  H  H7  1  0.17212732  0.07862333  0.46649337  1
  H  H8  1  0.14783696  0.04936415  0.32096956  1
  H  H9  1  0.11579463  0.18668471  0.18743585  1
  H  H10  1  0.24349468  0.11785622  0.17998805  1
  H  H11  1  0.33093183  0.28919811  0.15772406  1
  H  H12  1  0.22076003  0.28387364  0.09993160  1
  H  H13  1  0.21546350  0.35971216  0.18245160  1
  H  H14  1  0.30619286  0.39200400  0.40954570  1
  H  H15  1  0.19180794  0.42307680  0.53574472  1
  H  H16  1  0.22546691  0.45443209  0.67788599  1
  H  H17  1  0.27393504  0.77179807  0.89688863  1
  H  H18  1  0.19247779  0.81087909  0.82349530  1
  H  H19  1  0.32080034  0.85447607  0.82623626  1
  H  H20  1  0.26467734  0.61959850  0.81116324  1
  H  H21  1  0.39706882  0.67545567  0.80402650  1
  H  H22  1  0.13189227  0.64442188  0.70526809  1
  H  H23  1  0.10042440  0.67520943  0.56254396  1
  H  H24  1  0.07439392  0.82667418  0.46999498  1
  H  H25  1  0.04473008  0.84774072  0.32404797  1
  H  H26  1  0.19154831  0.88189898  0.18818488  1
  H  H27  1  0.11723590  0.76011249  0.18557570  1
  H  H28  1  0.28304339  0.65821514  0.16644435  1
  H  H29  1  0.28568900  0.76702240  0.10450146  1
  H  H30  1  0.35926210  0.76615764  0.18822024  1
  H  H31  1  0.39709332  0.69876904  0.41386295  1
  H  H32  1  0.42311014  0.80624849  0.53708509  1
  H  H33  1  0.45480769  0.77377855  0.67973338  1
  H  H34  1  0.70880819  0.26155191  0.10577167  1
  H  H35  1  0.80846010  0.28494996  0.16891247  1
  H  H36  1  0.68573784  0.34874885  0.17902887  1
  H  H37  1  0.72956039  0.10953521  0.19587078  1
  H  H38  1  0.59861606  0.17469560  0.20292143  1
  H  H39  1  0.86716203  0.13544993  0.30056803  1
  H  H40  1  0.89893883  0.16961853  0.44265897  1
  H  H41  1  0.92256034  0.32298620  0.53308922  1
  H  H42  1  0.95356455  0.34487089  0.67855685  1
  H  H43  1  0.80994167  0.38566274  0.81279520  1
  H  H44  1  0.88299484  0.26010089  0.81916388  1
  H  H45  1  0.72624496  0.17195054  0.86048854  1
  H  H46  1  0.69439278  0.29743631  0.89146256  1
  H  H47  1  0.64698542  0.25314174  0.80300327  1
  H  H48  1  0.60207583  0.20414203  0.59188727  1
  H  H49  1  0.57526077  0.31177592  0.46626837  1
  H  H50  1  0.54402515  0.27788790  0.32394354  1
  H  H51  1  0.74280902  0.73035189  0.10100178  1
  H  H52  1  0.68956852  0.80588341  0.17492899  1
  H  H53  1  0.65239961  0.67573895  0.16579849  1
  H  H54  1  0.88367136  0.73319828  0.18944903  1
  H  H55  1  0.82490503  0.60269267  0.19589916  1
  H  H56  1  0.85046572  0.87051316  0.29414919  1
  H  H57  1  0.82135959  0.90209447  0.43769211  1
  H  H58  1  0.67218804  0.92547317  0.53332790  1
  H  H59  1  0.64945401  0.95429985  0.67982771  1
  H  H60  1  0.61424350  0.81268244  0.81273333  1
  H  H61  1  0.73899463  0.88073639  0.81754295  1
  H  H62  1  0.83274324  0.70836509  0.83658800  1
  H  H63  1  0.72402955  0.71557619  0.89767007  1
  H  H64  1  0.71978615  0.63907887  0.81535736  1
  H  H65  1  0.80228917  0.60425842  0.58484979  1
  H  H66  1  0.69574041  0.57793974  0.46310525  1
  H  H67  1  0.72685397  0.54629141  0.31978628  1
  Pb  Pb68  1  0.98433288  0.00511550  0.98590106  1
  Pb  Pb69  1  0.01993143  0.50898994  0.00739759  1
  Pb  Pb70  1  0.47582397  -0.00018710  0.00941561  1
  Pb  Pb71  1  0.52539802  0.50337280  -0.00067335  1
  C  C72  1  0.31606873  0.31078013  0.78464565  1
  C  C73  1  0.29821370  0.29491515  0.69750332  1
  C  C74  1  0.32799092  0.19550632  0.66202599  1
  C  C75  1  0.30847150  0.17742237  0.58223846  1
  C  C76  1  0.25942911  0.25880931  0.53536216  1
  C  C77  1  0.24085765  0.23854702  0.45045210  1
  C  C78  1  0.19675745  0.14061505  0.42371605  1
  C  C79  1  0.18355459  0.12382940  0.34305794  1
  C  C80  1  0.21634260  0.20558605  0.29035268  1
  C  C81  1  0.20263205  0.19235604  0.20237087  1
  C  C82  1  0.27014433  0.31498673  0.39242977  1
  C  C83  1  0.23077334  0.35900658  0.57092556  1
  C  C84  1  0.24960565  0.37669218  0.65110913  1
  C  C85  1  0.31101549  0.68937889  0.78927079  1
  C  C86  1  0.29506335  0.70760886  0.70219960  1
  C  C87  1  0.19539140  0.68106223  0.66839468  1
  C  C88  1  0.17765107  0.69873143  0.58820621  1
  C  C89  1  0.25917614  0.74376432  0.53956362  1
  C  C90  1  0.23897224  0.76129807  0.45447716  1
  C  C91  1  0.13851720  0.80310589  0.42746020  1
  C  C92  1  0.12153146  0.81493198  0.34668055  1
  C  C93  1  0.20604932  0.78381888  0.29431480  1
  C  C94  1  0.19308117  0.79577827  0.20622320  1
  C  C95  1  0.31808578  0.73345510  0.39663852  1
  C  C96  1  0.35927078  0.76992928  0.57366984  1
  C  C97  1  0.37700118  0.75209112  0.65408320  1
  C  C98  1  0.68523796  0.18307303  0.21627168  1
  C  C99  1  0.70367314  0.20472264  0.30256690  1
  C  C100  1  0.80362516  0.17554147  0.33678945  1
  C  C101  1  0.82131684  0.19473140  0.41672736  1
  C  C102  1  0.73939284  0.24319005  0.46490472  1
  C  C103  1  0.75944290  0.26107262  0.54994895  1
  C  C104  1  0.85954199  0.30070186  0.57619663  1
  C  C105  1  0.87738074  0.31273140  0.65670677  1
  C  C106  1  0.79388630  0.28456029  0.70992562  1
  C  C107  1  0.80730176  0.29865353  0.79798852  1
  C  C108  1  0.68112431  0.23623849  0.60838556  1
  C  C109  1  0.63934775  0.27249698  0.43027674  1
  C  C110  1  0.62182868  0.25375629  0.35004520  1
  C  C111  1  0.81177881  0.68902552  0.21023986  1
  C  C112  1  0.79080925  0.70637737  0.29728885  1
  C  C113  1  0.81594808  0.80650136  0.33139348  1
  C  C114  1  0.79902202  0.82430711  0.41202398  1
  C  C115  1  0.75624028  0.74228926  0.46094439  1
  C  C116  1  0.73919409  0.76198969  0.54652595  1
  C  C117  1  0.69640898  0.86176910  0.57508800  1
  C  C118  1  0.68379550  0.87822266  0.65615169  1
  C  C119  1  0.71494841  0.79359721  0.70736887  1
  C  C120  1  0.70116861  0.80655699  0.79556750  1
  C  C121  1  0.76718574  0.68291558  0.60328517  1
  C  C122  1  0.73103513  0.64194979  0.42646988  1
  C  C123  1  0.74818088  0.62419669  0.34566305  1
  I  I124  1  0.23081472  0.92423948  0.01319209  1
  I  I125  1  0.27393791  0.51959647  0.98261580  1
  I  I126  1  0.73197800  0.02907109  0.96463184  1
  I  I127  1  0.77584089  0.43580235  0.00271370  1
  I  I128  1  0.06425516  0.24771551  0.00437303  1
  I  I129  1  0.92556014  0.74980880  0.00176290  1
  I  I130  1  0.48648904  0.25145601  0.03320193  1
  I  I131  1  0.54452628  0.75267415  0.98731191  1
  I  I132  1  0.04257024  0.01396558  0.80002742  1
  I  I133  1  0.95414528  0.00447106  0.17642119  1
  I  I134  1  0.02582067  0.50391898  0.81409983  1
  I  I135  1  0.05636215  0.50098022  0.19594143  1
  I  I136  1  0.45187349  0.00658463  0.81800029  1
  I  I137  1  0.49079374  0.94778796  0.19602519  1
  I  I138  1  0.56182922  0.49700362  0.80960044  1
  I  I139  1  0.53282426  0.51151146  0.19463444  1
  N  N140  1  0.21796494  0.27507141  0.83235767  1
  N  N141  1  0.24686123  0.28713995  0.15823761  1
  N  N142  1  0.25917722  0.29908836  0.31453297  1
  N  N143  1  0.27145636  0.78656404  0.83654504  1
  N  N144  1  0.28647041  0.74182642  0.16339650  1
  N  N145  1  0.30232953  0.74399943  0.31875102  1
  N  N146  1  0.72550888  0.27511691  0.16486404  1
  N  N147  1  0.71251652  0.25186425  0.84134338  1
  N  N148  1  0.69772971  0.24743749  0.68621363  1
  N  N149  1  0.71811129  0.72858486  0.16009794  1
  N  N150  1  0.74872764  0.71146999  0.83866628  1
  N  N151  1  0.75580377  0.69790455  0.68152549  1
