# generated using pymatgen
data_H16PbC13(I2N)2
_symmetry_space_group_name_H-M   'P 1'
_cell_length_a   12.26877468
_cell_length_b   12.69562562
_cell_length_c   15.80523922
_cell_angle_alpha   89.02808851
_cell_angle_beta   88.98797343
_cell_angle_gamma   88.79509697
_symmetry_Int_Tables_number   1
_chemical_formula_structural   H16PbC13(I2N)2
_chemical_formula_sum   'H64 Pb4 C52 I16 N8'
_cell_volume   2460.55318840
_cell_formula_units_Z   4
loop_
 _symmetry_equiv_pos_site_id
 _symmetry_equiv_pos_as_xyz
  1  'x, y, z'
loop_
 _atom_site_type_symbol
 _atom_site_label
 _atom_site_symmetry_multiplicity
 _atom_site_fract_x
 _atom_site_fract_y
 _atom_site_fract_z
 _atom_site_occupancy
  H  H0  1  0.21104928  0.22317552  0.88718367  1
  H  H1  1  0.16522557  0.16363199  0.80194150  1
  H  H2  1  0.13280262  0.29193870  0.81984652  1
  H  H3  1  0.30960264  0.35236961  0.79615493  1
  H  H4  1  0.36274746  0.22037581  0.79594284  1
  H  H5  1  0.34775578  0.10928709  0.67281891  1
  H  H6  1  0.32553174  0.09908175  0.51760692  1
  H  H7  1  0.30955027  0.40416315  0.38818392  1
  H  H8  1  0.29182193  0.39648747  0.23206313  1
  H  H9  1  0.27884209  0.25775063  0.11182386  1
  H  H10  1  0.14739027  0.29612225  0.12952693  1
  H  H11  1  0.18331656  0.16771942  0.12473153  1
  H  H12  1  0.15695961  0.08617835  0.25763117  1
  H  H13  1  0.17613531  0.09331613  0.41399146  1
  H  H14  1  0.18449972  0.41271300  0.51396298  1
  H  H15  1  0.20830087  0.42338518  0.66900119  1
  H  H16  1  0.22463586  0.78981842  0.88822509  1
  H  H17  1  0.16382965  0.83900107  0.80222173  1
  H  H18  1  0.29474204  0.86573133  0.81910539  1
  H  H19  1  0.35823285  0.69139558  0.79823090  1
  H  H20  1  0.22229247  0.64438072  0.79995637  1
  H  H21  1  0.10908104  0.65532494  0.67603263  1
  H  H22  1  0.09817085  0.67701223  0.52021358  1
  H  H23  1  0.41056642  0.68926731  0.38894737  1
  H  H24  1  0.39861810  0.70297643  0.23265759  1
  H  H25  1  0.24739617  0.71100141  0.11600780  1
  H  H26  1  0.28681572  0.83725639  0.11983746  1
  H  H27  1  0.15525758  0.80911789  0.12475904  1
  H  H28  1  0.07713226  0.84476350  0.25730616  1
  H  H29  1  0.08764022  0.82817963  0.41389714  1
  H  H30  1  0.41580849  0.81594447  0.51357814  1
  H  H31  1  0.42650644  0.79496180  0.66943875  1
  H  H32  1  0.76851359  0.29801484  0.11204704  1
  H  H33  1  0.83549116  0.33808114  0.19583830  1
  H  H34  1  0.70317998  0.37307685  0.18433406  1
  H  H35  1  0.64008033  0.19787722  0.20334357  1
  H  H36  1  0.77707359  0.14807525  0.20097140  1
  H  H37  1  0.89220111  0.15500893  0.32497171  1
  H  H38  1  0.90310379  0.17373577  0.48067609  1
  H  H39  1  0.58937451  0.18976953  0.61199530  1
  H  H40  1  0.59752570  0.20891502  0.76770067  1
  H  H41  1  0.73872314  0.22642092  0.88576680  1
  H  H42  1  0.70265653  0.35548739  0.86951611  1
  H  H43  1  0.83455932  0.31624206  0.87377740  1
  H  H44  1  0.91601101  0.34500513  0.73982924  1
  H  H45  1  0.90926745  0.32289973  0.58415690  1
  H  H46  1  0.58091069  0.31563971  0.48595974  1
  H  H47  1  0.57002700  0.29704343  0.33045654  1
  H  H48  1  0.70294770  0.75845939  0.11252817  1
  H  H49  1  0.65554275  0.82863191  0.19478144  1
  H  H50  1  0.63258247  0.69788612  0.18847650  1
  H  H51  1  0.81729651  0.64694787  0.20306245  1
  H  H52  1  0.85669972  0.78177412  0.19893347  1
  H  H53  1  0.84539801  0.88969287  0.32398490  1
  H  H54  1  0.82417601  0.89959037  0.48003312  1
  H  H55  1  0.80939746  0.59349149  0.61075016  1
  H  H56  1  0.79185372  0.60299054  0.76736233  1
  H  H57  1  0.77741902  0.73890378  0.88725625  1
  H  H58  1  0.64467035  0.72032678  0.87702842  1
  H  H59  1  0.69307488  0.84297015  0.87445106  1
  H  H60  1  0.65729999  0.91855628  0.74348892  1
  H  H61  1  0.67527175  0.90918104  0.58701107  1
  H  H62  1  0.68677176  0.58984774  0.48700254  1
  H  H63  1  0.71042598  0.57909091  0.33152778  1
  Pb  Pb64  1  0.98436036  0.99777038  0.97964158  1
  Pb  Pb65  1  0.01373655  0.49806750  0.01188442  1
  Pb  Pb66  1  0.49577671  1.00310236  0.00911372  1
  Pb  Pb67  1  0.50563325  0.49715702  0.00256147  1
  C  C68  1  0.29498450  0.27188188  0.77550126  1
  C  C69  1  0.27954963  0.26687998  0.68142711  1
  C  C70  1  0.31117591  0.17559725  0.63796689  1
  C  C71  1  0.29817454  0.16966911  0.55091289  1
  C  C72  1  0.25346364  0.25511673  0.50483993  1
  C  C73  1  0.24313673  0.24964776  0.41201896  1
  C  C74  1  0.27572151  0.33457299  0.35993750  1
  C  C75  1  0.26662406  0.33060410  0.27252778  1
  C  C76  1  0.22381878  0.24087844  0.23764651  1
  C  C77  1  0.19188119  0.15475984  0.28679581  1
  C  C78  1  0.20226856  0.15954079  0.37429645  1
  C  C79  1  0.22114477  0.34631478  0.54866376  1
  C  C80  1  0.23410763  0.35218407  0.63584590  1
  C  C81  1  0.27454281  0.70883822  0.77800601  1
  C  C82  1  0.26827771  0.72406906  0.68350284  1
  C  C83  1  0.17579721  0.69210645  0.64061299  1
  C  C84  1  0.16963198  0.70421599  0.55302408  1
  C  C85  1  0.25621864  0.74797903  0.50592443  1
  C  C86  1  0.25015899  0.75823657  0.41266503  1
  C  C87  1  0.33764175  0.72421927  0.36056794  1
  C  C88  1  0.33159053  0.73180473  0.27278557  1
  C  C89  1  0.23728420  0.77477305  0.23746433  1
  C  C90  1  0.14924921  0.80934128  0.28678348  1
  C  C91  1  0.15598892  0.80054627  0.37453993  1
  C  C92  1  0.34861610  0.78029453  0.54915498  1
  C  C93  1  0.35448545  0.76869482  0.63682991  1
  C  C94  1  0.72364246  0.21283884  0.22289763  1
  C  C95  1  0.73044083  0.22500779  0.31717727  1
  C  C96  1  0.82430715  0.19133796  0.36015454  1
  C  C97  1  0.83051250  0.20187858  0.44755195  1
  C  C98  1  0.74266372  0.24573713  0.49409920  1
  C  C99  1  0.74834862  0.25584554  0.58698391  1
  C  C100  1  0.66093189  0.22415776  0.63964745  1
  C  C101  1  0.66484442  0.23493907  0.72701834  1
  C  C102  1  0.75693498  0.27882644  0.76108907  1
  C  C103  1  0.84543163  0.30955610  0.71134468  1
  C  C104  1  0.84093327  0.29743516  0.62404106  1
  C  C105  1  0.64892805  0.27966821  0.45075402  1
  C  C106  1  0.64298497  0.26952847  0.36335168  1
  C  C107  1  0.79460512  0.72717290  0.22262500  1
  C  C108  1  0.77957994  0.73367885  0.31714964  1
  C  C109  1  0.81021353  0.82402427  0.35980382  1
  C  C110  1  0.79776821  0.82975405  0.44740532  1
  C  C111  1  0.75438620  0.74524489  0.49465396  1
  C  C112  1  0.74344785  0.75065094  0.58779748  1
  C  C113  1  0.77548298  0.66463018  0.63954554  1
  C  C114  1  0.76627017  0.66943218  0.72729606  1
  C  C115  1  0.72406407  0.76143821  0.76278766  1
  C  C116  1  0.69198356  0.84824024  0.71387989  1
  C  C117  1  0.70195712  0.84233032  0.62621734  1
  C  C118  1  0.72285622  0.65524998  0.45152210  1
  C  C119  1  0.73563226  0.64943706  0.36401021  1
  I  I120  1  0.23601258  0.01609745  0.01946986  1
  I  I121  1  0.25963336  0.52974475  0.05817299  1
  I  I122  1  0.73544195  0.03081996  0.92748534  1
  I  I123  1  0.76177894  0.53795622  0.99097153  1
  I  I124  1  0.97857940  0.25191183  0.99255989  1
  I  I125  1  0.00693400  0.75238594  0.99559075  1
  I  I126  1  0.45675550  0.25432040  0.02005479  1
  I  I127  1  0.48384022  0.75388050  0.00217548  1
  I  I128  1  0.03833590  0.00569201  0.77839727  1
  I  I129  1  0.94943266  0.00330527  0.17794389  1
  I  I130  1  0.05103052  0.48914356  0.81139078  1
  I  I131  1  0.99386286  0.45289017  0.21194585  1
  I  I132  1  0.44466958  0.99209679  0.80711570  1
  I  I133  1  0.51308007  0.97704521  0.20774849  1
  I  I134  1  0.52677222  0.49504860  0.80507287  1
  I  I135  1  0.55004360  0.50713772  0.20729292  1
  N  N136  1  0.19498679  0.23483584  0.82388411  1
  N  N137  1  0.20722880  0.24065600  0.14591574  1
  N  N138  1  0.23662950  0.80604482  0.82468819  1
  N  N139  1  0.23149241  0.78387774  0.14486776  1
  N  N140  1  0.75978562  0.31092510  0.17595371  1
  N  N141  1  0.75816964  0.29584625  0.85282688  1
  N  N142  1  0.69049690  0.75583542  0.17712440  1
  N  N143  1  0.70920099  0.76596112  0.85525646  1
