# generated using pymatgen
data_H20PbC15(I2N)2
_symmetry_space_group_name_H-M   'P 1'
_cell_length_a   12.33347054
_cell_length_b   12.26795903
_cell_length_c   18.22725723
_cell_angle_alpha   91.42901497
_cell_angle_beta   91.70877520
_cell_angle_gamma   88.88430212
_symmetry_Int_Tables_number   1
_chemical_formula_structural   H20PbC15(I2N)2
_chemical_formula_sum   'H80 Pb4 C60 I16 N8'
_cell_volume   2755.33487411
_cell_formula_units_Z   4
loop_
 _symmetry_equiv_pos_site_id
 _symmetry_equiv_pos_as_xyz
  1  'x, y, z'
loop_
 _atom_site_type_symbol
 _atom_site_label
 _atom_site_symmetry_multiplicity
 _atom_site_fract_x
 _atom_site_fract_y
 _atom_site_fract_z
 _atom_site_occupancy
  H  H0  1  0.21230831  0.27909332  0.88518862  1
  H  H1  1  0.17867016  0.14923306  0.87412292  1
  H  H2  1  0.30601645  0.18423563  0.90199252  1
  H  H3  1  0.34395228  0.25393526  0.78444604  1
  H  H4  1  0.29041414  0.12099639  0.77142649  1
  H  H5  1  0.10258110  0.20549945  0.75302500  1
  H  H6  1  0.15795344  0.33690092  0.76277871  1
  H  H7  1  0.13267040  0.09152571  0.64133526  1
  H  H8  1  0.17050132  0.08867600  0.50853405  1
  H  H9  1  0.33495775  0.08714857  0.42856458  1
  H  H10  1  0.37186892  0.08811127  0.29533507  1
  H  H11  1  0.39118818  0.19341076  0.18466012  1
  H  H12  1  0.34357150  0.33083288  0.18017128  1
  H  H13  1  0.19719737  0.13854672  0.16928956  1
  H  H14  1  0.24761517  0.20445309  0.09876102  1
  H  H15  1  0.16290350  0.26972998  0.15655790  1
  H  H16  1  0.23289353  0.41233379  0.28250502  1
  H  H17  1  0.19646790  0.41172206  0.41515302  1
  H  H18  1  0.30583155  0.40946937  0.53229346  1
  H  H19  1  0.26861553  0.41153674  0.66513122  1
  H  H20  1  0.29042096  0.78443858  0.88765975  1
  H  H21  1  0.16263708  0.83088939  0.87728654  1
  H  H22  1  0.19089193  0.70029131  0.90202128  1
  H  H23  1  0.25803731  0.65458023  0.78280868  1
  H  H24  1  0.12652436  0.71587910  0.77306058  1
  H  H25  1  0.21243673  0.89857951  0.75765659  1
  H  H26  1  0.34297072  0.83700111  0.76477916  1
  H  H27  1  0.09332313  0.86655644  0.64649927  1
  H  H28  1  0.08966304  0.83087881  0.51197928  1
  H  H29  1  0.09186337  0.66662771  0.42581896  1
  H  H30  1  0.09226320  0.62711216  0.29154906  1
  H  H31  1  0.19779488  0.60128734  0.18160053  1
  H  H32  1  0.33212898  0.64987582  0.17739636  1
  H  H33  1  0.13463535  0.79649311  0.16719123  1
  H  H34  1  0.20181012  0.73859361  0.09623015  1
  H  H35  1  0.26115901  0.82886726  0.15248430  1
  H  H36  1  0.40931836  0.76642785  0.28118181  1
  H  H37  1  0.40979513  0.80444135  0.41529970  1
  H  H38  1  0.41331750  0.69292971  0.52827232  1
  H  H39  1  0.41659859  0.72851195  0.66277827  1
  H  H40  1  0.71808065  0.29472360  0.11403527  1
  H  H41  1  0.84795526  0.32723009  0.12626759  1
  H  H42  1  0.81305164  0.20075343  0.09671613  1
  H  H43  1  0.74308716  0.15866934  0.21336602  1
  H  H44  1  0.87567745  0.21329911  0.22730503  1
  H  H45  1  0.79089063  0.40059871  0.24679545  1
  H  H46  1  0.66015238  0.34452583  0.23690587  1
  H  H47  1  0.90601529  0.36799353  0.35760407  1
  H  H48  1  0.91028939  0.32917984  0.49068218  1
  H  H49  1  0.91331682  0.16588651  0.57185040  1
  H  H50  1  0.91420253  0.13195612  0.70561533  1
  H  H51  1  0.81356023  0.11751015  0.81771185  1
  H  H52  1  0.67486010  0.15916421  0.82060674  1
  H  H53  1  0.85807948  0.31718750  0.83008327  1
  H  H54  1  0.79686633  0.26398006  0.90106301  1
  H  H55  1  0.72578525  0.34369089  0.84208427  1
  H  H56  1  0.59144108  0.27024953  0.71766029  1
  H  H57  1  0.59002224  0.30378812  0.58435562  1
  H  H58  1  0.59051875  0.19456711  0.46766621  1
  H  H59  1  0.58667860  0.23315690  0.33496530  1
  H  H60  1  0.70619399  0.71028856  0.11131077  1
  H  H61  1  0.66164856  0.84004558  0.12416887  1
  H  H62  1  0.78964363  0.81114395  0.09683660  1
  H  H63  1  0.83999910  0.74009422  0.21473510  1
  H  H64  1  0.77976809  0.87259845  0.22575957  1
  H  H65  1  0.59869605  0.78720187  0.24249461  1
  H  H66  1  0.65905415  0.65560167  0.23566030  1
  H  H67  1  0.63127402  0.90644739  0.35301055  1
  H  H68  1  0.66933635  0.91066039  0.48747235  1
  H  H69  1  0.83292274  0.90952818  0.57502936  1
  H  H70  1  0.86670907  0.90982314  0.70981169  1
  H  H71  1  0.88483056  0.80734637  0.82169510  1
  H  H72  1  0.84374210  0.66920329  0.82402689  1
  H  H73  1  0.68588737  0.85893534  0.83175173  1
  H  H74  1  0.74405711  0.79435599  0.90337316  1
  H  H75  1  0.66206406  0.72812595  0.84503124  1
  H  H76  1  0.72841871  0.59044980  0.71888899  1
  H  H77  1  0.69558650  0.58977010  0.58425087  1
  H  H78  1  0.80763520  0.58566886  0.47179285  1
  H  H79  1  0.76991586  0.58205569  0.33775646  1
  Pb  Pb80  1  0.01026870  0.99301654  0.01442618  1
  Pb  Pb81  1  0.00919490  0.49545208  0.99891229  1
  Pb  Pb82  1  0.51414174  1.00099219  0.99438081  1
  Pb  Pb83  1  0.50714895  0.48912566  0.99333740  1
  C  C84  1  0.27042482  0.20548043  0.78788696  1
  C  C85  1  0.17528770  0.25302608  0.74301253  1
  C  C86  1  0.19751818  0.25188304  0.66232157  1
  C  C87  1  0.17125880  0.16122374  0.61742402  1
  C  C88  1  0.19289014  0.15940872  0.54278787  1
  C  C89  1  0.24065486  0.24911422  0.51074273  1
  C  C90  1  0.26220602  0.24890875  0.43129840  1
  C  C91  1  0.31099752  0.15789943  0.39630934  1
  C  C92  1  0.33156346  0.15833743  0.32153781  1
  C  C93  1  0.30311140  0.24953216  0.27971250  1
  C  C94  1  0.32416874  0.24935484  0.19905888  1
  C  C95  1  0.25530826  0.34085898  0.31443629  1
  C  C96  1  0.23513901  0.34054858  0.38915487  1
  C  C97  1  0.26714842  0.33978341  0.55597837  1
  C  C98  1  0.24648354  0.34077888  0.63071909  1
  C  C99  1  0.21157482  0.73134929  0.78878464  1
  C  C100  1  0.25887186  0.82313701  0.74541252  1
  C  C101  1  0.25540443  0.80004129  0.66394053  1
  C  C102  1  0.16347675  0.82767165  0.62064327  1
  C  C103  1  0.16118604  0.80733210  0.54504996  1
  C  C104  1  0.25142128  0.75961479  0.51042468  1
  C  C105  1  0.25036174  0.73908112  0.43007482  1
  C  C106  1  0.16074486  0.69031222  0.39393236  1
  C  C107  1  0.16073024  0.66858669  0.31856570  1
  C  C108  1  0.24983356  0.69609039  0.27719376  1
  C  C109  1  0.25032591  0.67011781  0.19643339  1
  C  C110  1  0.33921899  0.74528136  0.31280643  1
  C  C111  1  0.33960756  0.76620091  0.38826603  1
  C  C112  1  0.34315840  0.73159042  0.55402199  1
  C  C113  1  0.34474758  0.75100763  0.62966299  1
  C  C114  1  0.79131838  0.23272471  0.21086446  1
  C  C115  1  0.74387267  0.32713962  0.25646176  1
  C  C116  1  0.74614086  0.30332445  0.33711198  1
  C  C117  1  0.83703651  0.32908521  0.38180176  1
  C  C118  1  0.83962481  0.30686160  0.45646212  1
  C  C119  1  0.75070956  0.25896498  0.48882373  1
  C  C120  1  0.75180275  0.23782941  0.56845566  1
  C  C121  1  0.84303903  0.18992366  0.60386881  1
  C  C122  1  0.84367895  0.17121605  0.67900940  1
  C  C123  1  0.75363633  0.20045163  0.72086171  1
  C  C124  1  0.75500843  0.18188280  0.80198439  1
  C  C125  1  0.66195910  0.24689350  0.68567162  1
  C  C126  1  0.66118700  0.26541441  0.61063423  1
  C  C127  1  0.65985095  0.23299449  0.44380008  1
  C  C128  1  0.65791145  0.25433137  0.36902478  1
  C  C129  1  0.76374680  0.78732735  0.21000402  1
  C  C130  1  0.67372030  0.74010220  0.25454253  1
  C  C131  1  0.69858951  0.74409845  0.33591255  1
  C  C132  1  0.67131841  0.83645220  0.37898345  1
  C  C133  1  0.69294343  0.83900732  0.45452845  1
  C  C134  1  0.74150637  0.74864492  0.48940046  1
  C  C135  1  0.76143541  0.74977038  0.56991591  1
  C  C136  1  0.80876089  0.83996883  0.60655589  1
  C  C137  1  0.82743568  0.84030225  0.68233432  1
  C  C138  1  0.79851854  0.75093049  0.72358985  1
  C  C139  1  0.82027509  0.75080955  0.80500983  1
  C  C140  1  0.75139623  0.66061247  0.68742880  1
  C  C141  1  0.73328783  0.66013432  0.61163450  1
  C  C142  1  0.76903508  0.65642450  0.44604991  1
  C  C143  1  0.74836326  0.65463725  0.37046805  1
  I  I144  1  0.26045417  0.95849412  0.01805725  1
  I  I145  1  0.25054709  0.56467018  0.00115688  1
  I  I146  1  0.75906050  0.06435342  0.98969238  1
  I  I147  1  0.75588806  0.49223072  0.02061412  1
  I  I148  1  0.02995300  0.24561030  0.98895023  1
  I  I149  1  0.93721978  0.75309116  0.00045499  1
  I  I150  1  0.42785728  0.24507204  0.00945433  1
  I  I151  1  0.52146584  0.74545440  0.98052940  1
  I  I152  1  0.03240535  0.99262026  0.83441458  1
  I  I153  1  0.02349257  0.99343042  0.18907547  1
  I  I154  1  0.99425851  0.48571675  0.82509423  1
  I  I155  1  0.02216151  0.44059861  0.17667838  1
  I  I156  1  0.51170571  0.99263599  0.81878691  1
  I  I157  1  0.53483784  0.99531995  0.17231367  1
  I  I158  1  0.55214978  0.47555807  0.81808385  1
  I  I159  1  0.50695770  0.49859016  0.16673873  1
  N  N160  1  0.24070460  0.20398431  0.86689406  1
  N  N161  1  0.22656577  0.21268080  0.15324318  1
  N  N162  1  0.21371570  0.76329440  0.86878597  1
  N  N163  1  0.20883243  0.76422996  0.15087401  1
  N  N164  1  0.79265660  0.26504191  0.13213798  1
  N  N165  1  0.78627878  0.28294557  0.84634380  1
  N  N166  1  0.72851195  0.78688950  0.13043151  1
  N  N167  1  0.72226491  0.78566118  0.84832547  1
