# generated using pymatgen
data_H18PbC16S2(I2N)2
_symmetry_space_group_name_H-M   'P 1'
_cell_length_a   12.37082165
_cell_length_b   12.40354553
_cell_length_c   19.84230102
_cell_angle_alpha   94.26003808
_cell_angle_beta   93.81432468
_cell_angle_gamma   91.83079417
_symmetry_Int_Tables_number   1
_chemical_formula_structural   H18PbC16S2(I2N)2
_chemical_formula_sum   'H72 Pb4 C64 S8 I16 N8'
_cell_volume   3027.42320285
_cell_formula_units_Z   4
loop_
 _symmetry_equiv_pos_site_id
 _symmetry_equiv_pos_as_xyz
  1  'x, y, z'
loop_
 _atom_site_type_symbol
 _atom_site_label
 _atom_site_symmetry_multiplicity
 _atom_site_fract_x
 _atom_site_fract_y
 _atom_site_fract_z
 _atom_site_occupancy
  H  H0  1  0.26558478  0.28649577  0.91414886  1
  H  H1  1  0.19872282  0.17589277  0.87911480  1
  H  H2  1  0.17442970  0.29800086  0.84902615  1
  H  H3  1  0.36717912  0.30938237  0.82046514  1
  H  H4  1  0.38225512  0.17704674  0.84820489  1
  H  H5  1  0.30940642  0.32583414  0.69575239  1
  H  H6  1  0.19768474  0.36608400  0.59168991  1
  H  H7  1  0.19232515  0.42449663  0.47556497  1
  H  H8  1  0.27564950  0.48456024  0.37260379  1
  H  H9  1  0.24625050  0.48384667  0.23987910  1
  H  H10  1  0.17341030  0.35394078  0.13733062  1
  H  H11  1  0.11972866  0.22516897  0.15598811  1
  H  H12  1  0.24991095  0.19003070  0.07897793  1
  H  H13  1  0.34288694  0.27646040  0.11855695  1
  H  H14  1  0.31348697  0.16092389  0.15144237  1
  H  H15  1  0.31887866  0.11896347  0.40527524  1
  H  H16  1  0.32369291  0.06069618  0.52122798  1
  H  H17  1  0.21959137  0.99624921  0.61330038  1
  H  H18  1  0.29903131  0.73448391  0.91139541  1
  H  H19  1  0.17854228  0.78284667  0.88997463  1
  H  H20  1  0.28916019  0.82253976  0.85208957  1
  H  H21  1  0.30592076  0.62478387  0.81139980  1
  H  H22  1  0.17279503  0.60687713  0.83813068  1
  H  H23  1  0.32674799  0.68795804  0.69190358  1
  H  H24  1  0.37320229  0.80496198  0.59777407  1
  H  H25  1  0.42905092  0.81596031  0.48137219  1
  H  H26  1  0.47996476  0.72195979  0.36980030  1
  H  H27  1  0.48187515  0.74997176  0.23947148  1
  H  H28  1  0.35932608  0.82690146  0.14361781  1
  H  H29  1  0.23917235  0.88911772  0.16819092  1
  H  H30  1  0.18086427  0.75980652  0.08421466  1
  H  H31  1  0.26088989  0.66411132  0.11051090  1
  H  H32  1  0.15275199  0.69574742  0.15211818  1
  H  H33  1  0.11497820  0.68548723  0.40197664  1
  H  H34  1  0.05900845  0.67490131  0.51820335  1
  H  H35  1  0.00139823  0.77337111  0.61981449  1
  H  H36  1  0.69591999  0.24808323  0.08874037  1
  H  H37  1  0.80767702  0.31393376  0.12309124  1
  H  H38  1  0.68771287  0.33333666  0.15704415  1
  H  H39  1  0.68256724  0.13653059  0.17904844  1
  H  H40  1  0.81512976  0.13005423  0.14921973  1
  H  H41  1  0.66606090  0.19400076  0.30558382  1
  H  H42  1  0.62924067  0.30262509  0.40996390  1
  H  H43  1  0.57409756  0.31051307  0.52749203  1
  H  H44  1  0.51810248  0.22097360  0.62952158  1
  H  H45  1  0.51922006  0.25459168  0.76224450  1
  H  H46  1  0.64664800  0.33197962  0.86424110  1
  H  H47  1  0.77855718  0.38252080  0.84877045  1
  H  H48  1  0.79996027  0.23770432  0.91905807  1
  H  H49  1  0.71437538  0.15362334  0.86752097  1
  H  H50  1  0.83639023  0.19028531  0.84403479  1
  H  H51  1  0.88148340  0.18508130  0.59351456  1
  H  H52  1  0.93676020  0.17769725  0.47603188  1
  H  H53  1  0.99844088  0.28207880  0.38372081  1
  H  H54  1  0.75259773  0.69532621  0.08766524  1
  H  H55  1  0.69397036  0.80566424  0.11843219  1
  H  H56  1  0.67361797  0.68390822  0.15176981  1
  H  H57  1  0.86904654  0.68475092  0.18567666  1
  H  H58  1  0.88130668  0.81687829  0.15717724  1
  H  H59  1  0.81122918  0.66691832  0.30846203  1
  H  H60  1  0.69950420  0.62412093  0.40347462  1
  H  H61  1  0.68728988  0.57141782  0.52035102  1
  H  H62  1  0.77995433  0.52521589  0.63339425  1
  H  H63  1  0.74504364  0.52759624  0.76287749  1
  H  H64  1  0.66373129  0.65336947  0.85662929  1
  H  H65  1  0.60609705  0.77546871  0.83208657  1
  H  H66  1  0.74181959  0.82271255  0.91781143  1
  H  H67  1  0.83418484  0.74709324  0.88200650  1
  H  H68  1  0.79491569  0.85955115  0.84764941  1
  H  H69  1  0.81320379  0.88809831  0.59787029  1
  H  H70  1  0.82606962  0.94037016  0.48122406  1
  H  H71  1  0.73034348  0.99463295  0.37975060  1
  Pb  Pb72  1  0.00332619  0.99947783  0.99382076  1
  Pb  Pb73  1  0.00463002  0.48999168  0.99664581  1
  Pb  Pb74  1  0.50943106  0.00466509  0.00387583  1
  Pb  Pb75  1  0.51369952  0.50944933  0.00153751  1
  C  C76  1  0.32587668  0.22992864  0.82240524  1
  C  C77  1  0.28993355  0.18474684  0.75276010  1
  C  C78  1  0.28803955  0.23973731  0.69482348  1
  C  C79  1  0.26240067  0.17179993  0.63422676  1
  C  C80  1  0.26009504  0.20838764  0.56531638  1
  C  C81  1  0.22558341  0.31191762  0.55108818  1
  C  C82  1  0.22259879  0.34509610  0.48549326  1
  C  C83  1  0.25482626  0.27602934  0.43138749  1
  C  C84  1  0.24844033  0.30919774  0.36208792  1
  C  C85  1  0.25770192  0.41172571  0.33906604  1
  C  C86  1  0.24354157  0.41149461  0.26768380  1
  C  C87  1  0.22231863  0.30934656  0.23605664  1
  C  C88  1  0.19126373  0.28069311  0.16316179  1
  C  C89  1  0.29071393  0.17301050  0.44586204  1
  C  C90  1  0.29330591  0.14001834  0.51130694  1
  C  C91  1  0.24348383  0.06532263  0.64868927  1
  C  C92  1  0.22840896  0.66428400  0.81683235  1
  C  C93  1  0.18514115  0.69959216  0.75070339  1
  C  C94  1  0.24137420  0.70670647  0.69328928  1
  C  C95  1  0.17502834  0.73422301  0.63585709  1
  C  C96  1  0.21104811  0.74040106  0.56696626  1
  C  C97  1  0.31628428  0.77776037  0.55504769  1
  C  C98  1  0.34810763  0.78389275  0.48935598  1
  C  C99  1  0.27609853  0.75230737  0.43283425  1
  C  C100  1  0.30908299  0.76036847  0.36385829  1
  C  C101  1  0.40980512  0.74497290  0.33872195  1
  C  C102  1  0.41079605  0.75917986  0.26862724  1
  C  C103  1  0.31146875  0.78645786  0.24017794  1
  C  C104  1  0.28515928  0.81485577  0.16977081  1
  C  C105  1  0.17134184  0.71351686  0.44480572  1
  C  C106  1  0.13970808  0.70769101  0.51037012  1
  C  C107  1  0.06906137  0.74969296  0.65256268  1
  C  C108  1  0.76003640  0.18175717  0.17713696  1
  C  C109  1  0.80568244  0.21608027  0.24670992  1
  C  C110  1  0.75213810  0.21583228  0.30545733  1
  C  C111  1  0.82226652  0.23977234  0.36507287  1
  C  C112  1  0.78780591  0.24116321  0.43445006  1
  C  C113  1  0.68441382  0.27566735  0.44999090  1
  C  C114  1  0.65319026  0.28010807  0.51613300  1
  C  C115  1  0.72414536  0.24947008  0.56923842  1
  C  C116  1  0.69221287  0.25798016  0.63883985  1
  C  C117  1  0.59013291  0.24479468  0.66244515  1
  C  C118  1  0.59051022  0.26225297  0.73365289  1
  C  C119  1  0.69179666  0.29009778  0.76434979  1
  C  C120  1  0.72004245  0.31400980  0.83798752  1
  C  C121  1  0.82665963  0.21254889  0.55344611  1
  C  C122  1  0.85776995  0.20843425  0.48734610  1
  C  C123  1  0.92831381  0.25928050  0.34911999  1
  C  C124  1  0.82757277  0.76111695  0.18124272  1
  C  C125  1  0.79796645  0.80599851  0.24870274  1
  C  C126  1  0.79330370  0.75219914  0.30683829  1
  C  C127  1  0.76814967  0.82072604  0.36430762  1
  C  C128  1  0.76248925  0.78688376  0.43345106  1
  C  C129  1  0.72585580  0.68200651  0.44595640  1
  C  C130  1  0.71910032  0.65199220  0.51182400  1
  C  C131  1  0.74899045  0.72579089  0.56784344  1
  C  C132  1  0.73916952  0.69519840  0.63697217  1
  C  C133  1  0.75465051  0.59602798  0.66328701  1
  C  C134  1  0.73693845  0.59745681  0.73307291  1
  C  C135  1  0.70690467  0.69700708  0.75993744  1
  C  C136  1  0.67832141  0.72646340  0.83024523  1
  C  C137  1  0.78705439  0.83022494  0.55530949  1
  C  C138  1  0.79389880  0.85988636  0.48955297  1
  C  C139  1  0.75259803  0.92583612  0.34710497  1
  S  S140  1  0.22089774  0.21299357  0.29467828  1
  S  S141  1  0.25855826  0.04870041  0.73330072  1
  S  S142  1  0.21662739  0.79537923  0.30038129  1
  S  S143  1  0.05054537  0.72857817  0.73496162  1
  S  S144  1  0.78786923  0.29373411  0.70512507  1
  S  S145  1  0.94192221  0.24695839  0.26410317  1
  S  S146  1  0.70046901  0.78938757  0.69888452  1
  S  S147  1  0.77044211  0.94073571  0.26387780  1
  I  I148  1  0.25077387  0.02286264  0.96370826  1
  I  I149  1  0.25725643  0.48075408  0.01446762  1
  I  I150  1  0.75572928  0.95535614  0.03202946  1
  I  I151  1  0.75899785  0.56165894  0.98213603  1
  I  I152  1  0.94485642  0.24868218  0.02320040  1
  I  I153  1  0.02960424  0.74538536  0.96769632  1
  I  I154  1  0.50371173  0.25748329  0.99901806  1
  I  I155  1  0.45331265  0.75670474  0.01207616  1
  I  I156  1  0.95036870  0.01122875  0.83191348  1
  I  I157  1  0.05148402  0.99604448  0.15195577  1
  I  I158  1  0.01661627  0.41856479  0.83725731  1
  I  I159  1  0.01121702  0.53130136  0.15853522  1
  I  I160  1  0.55650115  0.00397888  0.84660208  1
  I  I161  1  0.47965664  0.04333958  0.16545378  1
  I  I162  1  0.47679391  0.50282105  0.84320651  1
  I  I163  1  0.56908674  0.50414300  0.16840952  1
  N  N164  1  0.23473487  0.24862980  0.86836097  1
  N  N165  1  0.27913749  0.22407219  0.12609044  1
  N  N166  1  0.25037159  0.75727309  0.87030428  1
  N  N167  1  0.21613599  0.72876014  0.12710902  1
  N  N168  1  0.73648778  0.27547027  0.13445417  1
  N  N169  1  0.77048815  0.21868130  0.86919179  1
  N  N170  1  0.72996561  0.73576885  0.13227066  1
  N  N171  1  0.76748001  0.79266420  0.87147925  1
