# generated using pymatgen
data_H18PbC16S2(I2N)2
_symmetry_space_group_name_H-M   'P 1'
_cell_length_a   12.19151381
_cell_length_b   12.17322922
_cell_length_c   20.67850640
_cell_angle_alpha   85.57802963
_cell_angle_beta   89.36322809
_cell_angle_gamma   91.50538512
_symmetry_Int_Tables_number   1
_chemical_formula_structural   H18PbC16S2(I2N)2
_chemical_formula_sum   'H72 Pb4 C64 S8 I16 N8'
_cell_volume   3058.44188627
_cell_formula_units_Z   4
loop_
 _symmetry_equiv_pos_site_id
 _symmetry_equiv_pos_as_xyz
  1  'x, y, z'
loop_
 _atom_site_type_symbol
 _atom_site_label
 _atom_site_symmetry_multiplicity
 _atom_site_fract_x
 _atom_site_fract_y
 _atom_site_fract_z
 _atom_site_occupancy
  H  H0  1  0.25031309  0.20128565  0.90640990  1
  H  H1  1  0.24949227  0.32916262  0.87173072  1
  H  H2  1  0.34018482  0.23591151  0.84703935  1
  H  H3  1  0.09788284  0.21648381  0.83537421  1
  H  H4  1  0.19349846  0.11879011  0.81242456  1
  H  H5  1  0.23209921  0.12798877  0.68973422  1
  H  H6  1  0.15686637  0.10423613  0.57321818  1
  H  H7  1  0.18575712  0.07470064  0.45782072  1
  H  H8  1  0.31969653  0.03003219  0.38128074  1
  H  H9  1  0.40195989  0.28323812  0.16415688  1
  H  H10  1  0.30694306  0.38131446  0.18734977  1
  H  H11  1  0.15946555  0.26497647  0.15311135  1
  H  H12  1  0.24915034  0.29882476  0.09351962  1
  H  H13  1  0.24940153  0.17102982  0.12833090  1
  H  H14  1  0.26860421  0.37205102  0.31014012  1
  H  H15  1  0.34417071  0.39568812  0.42659178  1
  H  H16  1  0.31528998  0.42521524  0.54199077  1
  H  H17  1  0.18119325  0.46994485  0.61839504  1
  H  H18  1  0.19444385  0.73496639  0.90286428  1
  H  H19  1  0.32401190  0.75300808  0.87906272  1
  H  H20  1  0.24580224  0.65506988  0.84772861  1
  H  H21  1  0.22330019  0.89783665  0.82788836  1
  H  H22  1  0.12074007  0.80369602  0.80418168  1
  H  H23  1  0.12997940  0.76534091  0.68399754  1
  H  H24  1  0.10922728  0.83930366  0.56444472  1
  H  H25  1  0.07656230  0.81174914  0.44943315  1
  H  H26  1  0.02674820  0.67894862  0.37566260  1
  H  H27  1  0.27620908  0.60227153  0.17161094  1
  H  H28  1  0.37927818  0.69558141  0.19563747  1
  H  H29  1  0.25489774  0.84527978  0.15260617  1
  H  H30  1  0.30593339  0.76572205  0.09717173  1
  H  H31  1  0.17628910  0.74804714  0.12087343  1
  H  H32  1  0.37005862  0.73378970  0.31592506  1
  H  H33  1  0.39069667  0.65964312  0.43544831  1
  H  H34  1  0.42337026  0.68721122  0.55046316  1
  H  H35  1  0.47320619  0.82034165  0.62412167  1
  H  H36  1  0.79701937  0.23493791  0.09833362  1
  H  H37  1  0.66704368  0.24347967  0.12309569  1
  H  H38  1  0.74840766  0.15077655  0.16059416  1
  H  H39  1  0.77153982  0.39518191  0.15961110  1
  H  H40  1  0.87249502  0.30443513  0.19109571  1
  H  H41  1  0.86536635  0.27194096  0.31437402  1
  H  H42  1  0.88983015  0.34555787  0.42590355  1
  H  H43  1  0.92647196  0.31712818  0.54285502  1
  H  H44  1  0.97759778  0.19239258  0.62897558  1
  H  H45  1  0.72899810  0.10493278  0.84089783  1
  H  H46  1  0.62737302  0.19468610  0.80916252  1
  H  H47  1  0.74995695  0.34957747  0.83914009  1
  H  H48  1  0.70262863  0.26541475  0.90170810  1
  H  H49  1  0.83260664  0.25801994  0.87668147  1
  H  H50  1  0.63452643  0.22716279  0.68579871  1
  H  H51  1  0.61022393  0.15344119  0.57431217  1
  H  H52  1  0.57357404  0.18189831  0.45736163  1
  H  H53  1  0.52242660  0.30707905  0.37134938  1
  H  H54  1  0.75670305  0.79809072  0.09471464  1
  H  H55  1  0.74522737  0.67018528  0.12981822  1
  H  H56  1  0.84284336  0.75996486  0.15450821  1
  H  H57  1  0.60229164  0.78528596  0.16560542  1
  H  H58  1  0.70345574  0.88156111  0.18876554  1
  H  H59  1  0.74195795  0.87070003  0.31091905  1
  H  H60  1  0.65774881  0.89152972  0.42841926  1
  H  H61  1  0.68944844  0.92318452  0.54327580  1
  H  H62  1  0.83541333  0.97034824  0.61788790  1
  H  H63  1  0.89774640  0.71512426  0.83487107  1
  H  H64  1  0.79749394  0.61818677  0.81138548  1
  H  H65  1  0.65684985  0.73862337  0.84513246  1
  H  H66  1  0.74274491  0.70140879  0.90522619  1
  H  H67  1  0.75343693  0.82931381  0.87008187  1
  H  H68  1  0.75889739  0.62915229  0.68915217  1
  H  H69  1  0.84331567  0.60849457  0.57170262  1
  H  H70  1  0.81161296  0.57683458  0.45684383  1
  H  H71  1  0.66543963  0.52958980  0.38237080  1
  Pb  Pb72  1  0.98612229  0.99031195  0.02057398  1
  Pb  Pb73  1  0.01043731  0.48988970  0.00478108  1
  Pb  Pb74  1  0.48982541  0.01012138  0.99518864  1
  Pb  Pb75  1  0.51412477  0.50984189  0.97953372  1
  C  C76  1  0.17962450  0.20720695  0.81392480  1
  C  C77  1  0.19140091  0.26348268  0.74743638  1
  C  C78  1  0.21356706  0.21506137  0.69054020  1
  C  C79  1  0.21284090  0.29115690  0.63417066  1
  C  C80  1  0.23337007  0.26767446  0.56640009  1
  C  C81  1  0.19916456  0.16816417  0.54158883  1
  C  C82  1  0.21560060  0.15127023  0.47644216  1
  C  C83  1  0.26766332  0.23224156  0.43340782  1
  C  C84  1  0.28801756  0.20882833  0.36560695  1
  C  C85  1  0.31062293  0.10367126  0.34884765  1
  C  C86  1  0.30897724  0.23659084  0.25232900  1
  C  C87  1  0.32043148  0.29283522  0.18581850  1
  C  C88  1  0.28708815  0.28497340  0.30927231  1
  C  C89  1  0.30189675  0.33174599  0.45822214  1
  C  C90  1  0.28546126  0.34863702  0.52337027  1
  C  C91  1  0.19014192  0.39632951  0.65085889  1
  C  C92  1  0.20952627  0.81683247  0.80876972  1
  C  C93  1  0.26606785  0.80754895  0.74518308  1
  C  C94  1  0.21761480  0.78419925  0.68744976  1
  C  C95  1  0.29381638  0.78586978  0.63418803  1
  C  C96  1  0.26932135  0.76570260  0.56642113  1
  C  C97  1  0.17089166  0.79854533  0.53674716  1
  C  C98  1  0.15242538  0.78303353  0.47169165  1
  C  C99  1  0.23062388  0.73327542  0.43347098  1
  C  C100  1  0.20617177  0.71326279  0.36567474  1
  C  C101  1  0.10064963  0.68901065  0.34570684  1
  C  C102  1  0.23395404  0.69196636  0.25464581  1
  C  C103  1  0.29042926  0.68298936  0.19100905  1
  C  C104  1  0.28240976  0.71503553  0.31242882  1
  C  C105  1  0.32903713  0.70040462  0.46314697  1
  C  C106  1  0.34750065  0.71591470  0.52820249  1
  C  C107  1  0.39932897  0.81031977  0.65409909  1
  C  C108  1  0.78383403  0.31410906  0.18545052  1
  C  C109  1  0.72802162  0.30260109  0.25023352  1
  C  C110  1  0.77760865  0.28522314  0.30973946  1
  C  C111  1  0.70225446  0.28432484  0.36337254  1
  C  C112  1  0.72836547  0.26618362  0.43263135  1
  C  C113  1  0.82852951  0.30224463  0.45798865  1
  C  C114  1  0.84929160  0.28610885  0.52404425  1
  C  C115  1  0.77165975  0.23288473  0.56759389  1
  C  C116  1  0.79771795  0.21493104  0.63686981  1
  C  C117  1  0.90380895  0.19822865  0.65827302  1
  C  C118  1  0.77187675  0.19698126  0.75000523  1
  C  C119  1  0.71612199  0.18568182  0.81480625  1
  C  C120  1  0.72231143  0.21407123  0.69047442  1
  C  C121  1  0.67152347  0.19676442  0.54222844  1
  C  C122  1  0.65075877  0.21290586  0.47617288  1
  C  C123  1  0.59617488  0.30125987  0.34201696  1
  C  C124  1  0.68355010  0.79346145  0.18735366  1
  C  C125  1  0.68920680  0.73709509  0.25375268  1
  C  C126  1  0.71625293  0.78433486  0.31026128  1
  C  C127  1  0.71010407  0.70788100  0.36646964  1
  C  C128  1  0.73248780  0.73159280  0.43393805  1
  C  C129  1  0.69988946  0.82973399  0.45932867  1
  C  C130  1  0.71730360  0.84739939  0.52419040  1
  C  C131  1  0.76852287  0.76840074  0.56618887  1
  C  C132  1  0.79078904  0.79203387  0.63367965  1
  C  C133  1  0.82212267  0.89632009  0.65010448  1
  C  C134  1  0.81142650  0.76271942  0.74641227  1
  C  C135  1  0.81677861  0.70640537  0.81283825  1
  C  C136  1  0.78456179  0.71552248  0.68986400  1
  C  C137  1  0.80115611  0.67027944  0.54078905  1
  C  C138  1  0.78374192  0.65261111  0.47593295  1
  C  C139  1  0.67867708  0.60358219  0.35011319  1
  S  S140  1  0.33152334  0.09737015  0.26788934  1
  S  S141  1  0.16887172  0.40270007  0.73178570  1
  S  S142  1  0.09437820  0.66686009  0.26565869  1
  S  S143  1  0.40561567  0.83281456  0.73410888  1
  S  S144  1  0.91155255  0.18132450  0.74051678  1
  S  S145  1  0.58838432  0.31846685  0.25977784  1
  S  S146  1  0.84584209  0.90116731  0.73087610  1
  S  S147  1  0.65472148  0.59867527  0.26936613  1
  I  I148  1  0.23640633  0.07138413  0.01292836  1
  I  I149  1  0.26392865  0.42873397  0.98725883  1
  I  I150  1  0.73239787  0.92372785  0.99588709  1
  I  I151  1  0.76785703  0.57596326  0.00389955  1
  I  I152  1  0.92266893  0.23946271  0.00361507  1
  I  I153  1  0.07692644  0.74290002  0.00778075  1
  I  I154  1  0.57697237  0.26060320  0.99632079  1
  I  I155  1  0.42325058  0.75710652  0.99239814  1
  I  I156  1  0.97961314  0.98138139  0.87006071  1
  I  I157  1  0.95572570  0.97976287  0.17765883  1
  I  I158  1  1.00028795  0.48118572  0.85369066  1
  I  I159  1  0.05437393  0.45583401  0.15878778  1
  I  I160  1  0.44505607  0.04393785  0.84122168  1
  I  I161  1  0.50099246  0.01914457  0.14626031  1
  I  I162  1  0.54474010  0.52013759  0.82236569  1
  I  I163  1  0.52117358  0.51846491  0.13008177  1
  N  N164  1  0.26010810  0.24796033  0.86201051  1
  N  N165  1  0.23936635  0.25234463  0.13798541  1
  N  N166  1  0.24621568  0.73417632  0.86211417  1
  N  N167  1  0.25414911  0.76636254  0.13792744  1
  N  N168  1  0.74572094  0.23040621  0.13977597  1
  N  N169  1  0.75369063  0.27014738  0.86015911  1
  N  N170  1  0.76294522  0.75095135  0.13925392  1
  N  N171  1  0.73652962  0.74841346  0.86063900  1
