# generated using pymatgen
data_H18PbC16S(I2N)2
_symmetry_space_group_name_H-M   'P 1'
_cell_length_a   12.63237001
_cell_length_b   12.40441075
_cell_length_c   18.50318829
_cell_angle_alpha   90.72032365
_cell_angle_beta   90.29472377
_cell_angle_gamma   89.92469014
_symmetry_Int_Tables_number   1
_chemical_formula_structural   H18PbC16S(I2N)2
_chemical_formula_sum   'H72 Pb4 C64 S4 I16 N8'
_cell_volume   2899.12631388
_cell_formula_units_Z   4
loop_
 _symmetry_equiv_pos_site_id
 _symmetry_equiv_pos_as_xyz
  1  'x, y, z'
loop_
 _atom_site_type_symbol
 _atom_site_label
 _atom_site_symmetry_multiplicity
 _atom_site_fract_x
 _atom_site_fract_y
 _atom_site_fract_z
 _atom_site_occupancy
  H  H0  1  0.16700741  0.20744186  0.84650723  1
  H  H1  1  0.21278775  0.30388902  0.90241230  1
  H  H2  1  0.16270222  0.33811330  0.82327278  1
  H  H3  1  0.35926025  0.34434702  0.82732272  1
  H  H4  1  0.35655983  0.20314618  0.84478169  1
  H  H5  1  0.28624922  0.07397965  0.75289521  1
  H  H6  1  0.27281847  0.02844754  0.62283097  1
  H  H7  1  0.27188539  0.08636687  0.49631134  1
  H  H8  1  0.37980902  0.06824279  0.38385361  1
  H  H9  1  0.11715117  0.32614247  0.20884583  1
  H  H10  1  0.12436725  0.19218505  0.17401737  1
  H  H11  1  0.20070262  0.31694989  0.09321286  1
  H  H12  1  0.29051001  0.36107499  0.15434077  1
  H  H13  1  0.29561120  0.23507813  0.12212446  1
  H  H14  1  0.18519712  0.35207653  0.34131585  1
  H  H15  1  0.31420802  0.42212202  0.44489635  1
  H  H16  1  0.33079226  0.46779207  0.57432769  1
  H  H17  1  0.33563043  0.40925417  0.70388785  1
  H  H18  1  0.21798481  0.84410968  0.84679430  1
  H  H19  1  0.30010452  0.78573728  0.90694826  1
  H  H20  1  0.34768056  0.83335513  0.83070181  1
  H  H21  1  0.33865784  0.63559077  0.82815701  1
  H  H22  1  0.20055399  0.64590019  0.84627814  1
  H  H23  1  0.07556926  0.71468040  0.75545123  1
  H  H24  1  0.03154629  0.72747904  0.62553910  1
  H  H25  1  0.08826552  0.72791540  0.49880278  1
  H  H26  1  0.06864557  0.62342129  0.38492077  1
  H  H27  1  0.32806584  0.88372264  0.21218369  1
  H  H28  1  0.19631753  0.87919389  0.17720504  1
  H  H29  1  0.31972068  0.80450741  0.09632207  1
  H  H30  1  0.36236530  0.70983786  0.15514176  1
  H  H31  1  0.23867795  0.70605886  0.12147850  1
  H  H32  1  0.35259983  0.81256574  0.34257144  1
  H  H33  1  0.41783198  0.68629857  0.44544755  1
  H  H34  1  0.46312591  0.67204710  0.57480130  1
  H  H35  1  0.40510616  0.66625359  0.70483533  1
  H  H36  1  0.78611108  0.33116823  0.15326429  1
  H  H37  1  0.68904077  0.28022820  0.09822105  1
  H  H38  1  0.65851848  0.33109729  0.17821943  1
  H  H39  1  0.65559978  0.13076372  0.17323247  1
  H  H40  1  0.79374152  0.13604053  0.15424443  1
  H  H41  1  0.92143320  0.20442991  0.24486208  1
  H  H42  1  0.96699050  0.22205747  0.37472865  1
  H  H43  1  0.91111167  0.22718587  0.50168132  1
  H  H44  1  0.93436296  0.12442706  0.61216092  1
  H  H45  1  0.67755000  0.37990910  0.79279412  1
  H  H46  1  0.80545164  0.36413938  0.83155030  1
  H  H47  1  0.66193797  0.28721308  0.90185225  1
  H  H48  1  0.63350465  0.19716349  0.83687220  1
  H  H49  1  0.74876786  0.19073653  0.87925863  1
  H  H50  1  0.64823128  0.30842284  0.66156639  1
  H  H51  1  0.58196148  0.18758678  0.55623561  1
  H  H52  1  0.53553307  0.17307054  0.42691613  1
  H  H53  1  0.59215090  0.16237380  0.29700054  1
  H  H54  1  0.67092175  0.77684162  0.15053753  1
  H  H55  1  0.73060030  0.68627143  0.09444112  1
  H  H56  1  0.68162868  0.64684112  0.17259696  1
  H  H57  1  0.87647324  0.66070932  0.17365578  1
  H  H58  1  0.86165459  0.80102589  0.15513286  1
  H  H59  1  0.79313414  0.92760648  0.24627233  1
  H  H60  1  0.77542184  0.97181828  0.37619312  1
  H  H61  1  0.77179433  0.91348601  0.50249736  1
  H  H62  1  0.88195767  0.93054198  0.61462826  1
  H  H63  1  0.62196151  0.67497155  0.78974207  1
  H  H64  1  0.62870206  0.80910971  0.82516294  1
  H  H65  1  0.70829248  0.67003021  0.90117626  1
  H  H66  1  0.80494801  0.64910076  0.84107874  1
  H  H67  1  0.79111682  0.77027931  0.88201466  1
  H  H68  1  0.68700933  0.64886686  0.65830245  1
  H  H69  1  0.81620797  0.57800734  0.55420292  1
  H  H70  1  0.83192056  0.53204521  0.42440920  1
  H  H71  1  0.83815324  0.59143588  0.29500533  1
  Pb  Pb72  1  1.01009464  -0.00880428  0.99566225  1
  Pb  Pb73  1  0.99079665  0.49380992  0.00160834  1
  Pb  Pb74  1  0.51543863  0.99340518  0.00252583  1
  Pb  Pb75  1  0.49178376  0.50134882  0.00695381  1
  C  C76  1  0.31696567  0.26884468  0.81583000  1
  C  C77  1  0.31064465  0.24499666  0.73625043  1
  C  C78  1  0.29336483  0.13698703  0.71276200  1
  C  C79  1  0.28588774  0.11176291  0.64044281  1
  C  C80  1  0.29519876  0.19344229  0.58784137  1
  C  C81  1  0.28683020  0.16968554  0.51318252  1
  C  C82  1  0.29373920  0.24964087  0.46167020  1
  C  C83  1  0.28566164  0.21958958  0.38465524  1
  C  C84  1  0.33044450  0.12647087  0.35602496  1
  C  C85  1  0.22868221  0.22632614  0.26417186  1
  C  C86  1  0.17135588  0.25865341  0.19776750  1
  C  C87  1  0.22835725  0.27734699  0.33079658  1
  C  C88  1  0.30865448  0.35853448  0.48495772  1
  C  C89  1  0.31843982  0.38409491  0.55742385  1
  C  C90  1  0.31226448  0.30309548  0.61092147  1
  C  C91  1  0.32059420  0.32627265  0.68605888  1
  C  C92  1  0.26689551  0.68310701  0.81767663  1
  C  C93  1  0.24388492  0.69129529  0.73817355  1
  C  C94  1  0.13788848  0.70860240  0.71509169  1
  C  C95  1  0.11337910  0.71540550  0.64282934  1
  C  C96  1  0.19369125  0.70649886  0.58970032  1
  C  C97  1  0.17026728  0.71390100  0.51512441  1
  C  C98  1  0.24865052  0.70670347  0.46298070  1
  C  C99  1  0.21983704  0.71454212  0.38595614  1
  C  C100  1  0.12724096  0.67160134  0.35724262  1
  C  C101  1  0.22782522  0.77204278  0.26592472  1
  C  C102  1  0.26079993  0.83048640  0.20024646  1
  C  C103  1  0.27801308  0.77090550  0.33228810  1
  C  C104  1  0.35558758  0.69242739  0.48596683  1
  C  C105  1  0.38086012  0.68401829  0.55831330  1
  C  C106  1  0.30139912  0.69041647  0.61238368  1
  C  C107  1  0.32375150  0.68177599  0.68738488  1
  C  C108  1  0.72888871  0.17586325  0.18373859  1
  C  C109  1  0.75329106  0.18441891  0.26309362  1
  C  C110  1  0.85969791  0.20110476  0.28559976  1
  C  C111  1  0.88487079  0.21056622  0.35771367  1
  C  C112  1  0.80497314  0.20416275  0.41110082  1
  C  C113  1  0.82905826  0.21277966  0.48556812  1
  C  C114  1  0.75130665  0.20598509  0.53799801  1
  C  C115  1  0.78159371  0.21309527  0.61477432  1
  C  C116  1  0.87543773  0.17096046  0.64162406  1
  C  C117  1  0.77451958  0.26659877  0.73638211  1
  C  C118  1  0.74036759  0.32109995  0.80408312  1
  C  C119  1  0.72337473  0.26712183  0.67032311  1
  C  C120  1  0.64396585  0.19246014  0.51557017  1
  C  C121  1  0.61801976  0.18352542  0.44328825  1
  C  C122  1  0.69697097  0.18813830  0.38895408  1
  C  C123  1  0.67377439  0.17759455  0.31407655  1
  C  C124  1  0.82718642  0.73225794  0.18342319  1
  C  C125  1  0.81529809  0.75602590  0.26275613  1
  C  C126  1  0.79757514  0.86394305  0.28619522  1
  C  C127  1  0.78826695  0.88859660  0.35848876  1
  C  C128  1  0.79604426  0.80658463  0.41106680  1
  C  C129  1  0.78714760  0.83019801  0.48568267  1
  C  C130  1  0.79464904  0.75022475  0.53725848  1
  C  C131  1  0.78715013  0.78034760  0.61426922  1
  C  C132  1  0.83221784  0.87355499  0.64267018  1
  C  C133  1  0.73128298  0.77589352  0.73456390  1
  C  C134  1  0.67527852  0.74305806  0.80097304  1
  C  C135  1  0.73031437  0.72361157  0.66830651  1
  C  C136  1  0.81004790  0.64136308  0.51395290  1
  C  C137  1  0.81940530  0.61576404  0.44147223  1
  C  C138  1  0.81304417  0.69695345  0.38798052  1
  C  C139  1  0.82282096  0.67433459  0.31295980  1
  S  S140  1  0.30098549  0.10808832  0.26670535  1
  S  S141  1  0.10961305  0.70241043  0.26846670  1
  S  S142  1  0.89345897  0.19850262  0.73126479  1
  S  S143  1  0.80356125  0.89384872  0.73167260  1
  I  I144  1  0.27255476  0.98714780  0.02562248  1
  I  I145  1  0.24861493  0.49641768  0.99570248  1
  I  I146  1  0.76911660  0.98869497  0.94997613  1
  I  I147  1  0.74408582  0.49786697  0.99692869  1
  I  I148  1  0.04140132  0.24366910  -0.00047569  1
  I  I149  1  0.03591453  0.74024286  0.01621542  1
  I  I150  1  0.51280786  0.24823158  0.01909026  1
  I  I151  1  0.51368214  0.74590879  0.97575091  1
  I  I152  1  0.08675058  0.99381184  0.82676352  1
  I  I153  1  -0.00211290  0.00046966  0.16449593  1
  I  I154  1  0.98853793  0.50066005  0.82953508  1
  I  I155  1  0.94420151  0.44878144  0.17453568  1
  I  I156  1  0.49592758  0.00977334  0.83005148  1
  I  I157  1  0.54464579  0.92693308  0.17278618  1
  I  I158  1  0.50979908  0.49331255  0.83224037  1
  I  I159  1  0.48810462  0.51423538  0.18263372  1
  N  N160  1  0.20819126  0.28009362  0.84862304  1
  N  N161  1  0.24482035  0.29566836  0.13856198  1
  N  N162  1  0.28387618  0.79271265  0.85247230  1
  N  N163  1  0.29819557  0.75655632  0.13969457  1
  N  N164  1  0.71538668  0.28636287  0.15130509  1
  N  N165  1  0.69380109  0.24451083  0.85862522  1
  N  N166  1  0.72132141  0.70919594  0.14790283  1
  N  N167  1  0.75041903  0.70550367  0.85970630  1
