# generated using pymatgen
data_H18PbC16S2(I2N)2
_symmetry_space_group_name_H-M   'P 1'
_cell_length_a   12.81385303
_cell_length_b   12.69667884
_cell_length_c   19.76117477
_cell_angle_alpha   92.10541756
_cell_angle_beta   87.56319127
_cell_angle_gamma   89.85642178
_symmetry_Int_Tables_number   1
_chemical_formula_structural   H18PbC16S2(I2N)2
_chemical_formula_sum   'H72 Pb4 C64 S8 I16 N8'
_cell_volume   3209.90992576
_cell_formula_units_Z   4
loop_
 _symmetry_equiv_pos_site_id
 _symmetry_equiv_pos_as_xyz
  1  'x, y, z'
loop_
 _atom_site_type_symbol
 _atom_site_label
 _atom_site_symmetry_multiplicity
 _atom_site_fract_x
 _atom_site_fract_y
 _atom_site_fract_z
 _atom_site_occupancy
  H  H0  1  0.19457982  0.41465293  0.82843891  1
  H  H1  1  0.19020150  0.31158317  0.87879716  1
  H  H2  1  0.26843670  0.41151064  0.89603788  1
  H  H3  1  0.39409752  0.37136354  0.81842586  1
  H  H4  1  0.35264213  0.24492302  0.84404994  1
  H  H5  1  0.25640859  0.12796415  0.76680803  1
  H  H6  1  0.23610646  0.07199647  0.64716073  1
  H  H7  1  0.33559697  0.01564851  0.54623558  1
  H  H8  1  0.13542958  0.06791073  0.31824519  1
  H  H9  1  0.10157901  0.16091704  0.20455774  1
  H  H10  1  0.17789657  0.45248942  0.20089255  1
  H  H11  1  0.11621174  0.34933415  0.15503452  1
  H  H12  1  0.29584312  0.27444188  0.12965382  1
  H  H13  1  0.34544991  0.38498169  0.16345494  1
  H  H14  1  0.27057020  0.39327119  0.09617057  1
  H  H15  1  0.22652900  0.32242463  0.48460957  1
  H  H16  1  0.34311064  0.37645283  0.58391457  1
  H  H17  1  0.36011048  0.43350497  0.70384138  1
  H  H18  1  0.40460472  0.81571298  0.81701063  1
  H  H19  1  0.31412484  0.82466271  0.88012937  1
  H  H20  1  0.40864184  0.73475451  0.88206903  1
  H  H21  1  0.33833823  0.61500109  0.81856672  1
  H  H22  1  0.22196945  0.68061734  0.84685804  1
  H  H23  1  0.11466529  0.76006165  0.76776628  1
  H  H24  1  0.06686237  0.76922823  0.64842674  1
  H  H25  1  0.01832554  0.66293875  0.55461281  1
  H  H26  1  0.06776260  0.85549975  0.32111038  1
  H  H27  1  0.16232868  0.88998327  0.20332596  1
  H  H28  1  0.45669357  0.82730342  0.19424771  1
  H  H29  1  0.35539520  0.88531428  0.14960861  1
  H  H30  1  0.29615253  0.70947691  0.11664780  1
  H  H31  1  0.39109108  0.65394399  0.16040164  1
  H  H32  1  0.42224547  0.72877898  0.09402066  1
  H  H33  1  0.32268887  0.77312588  0.47910172  1
  H  H34  1  0.37506488  0.66005828  0.58213805  1
  H  H35  1  0.42343895  0.65237345  0.70185431  1
  H  H36  1  0.58383671  0.27289254  0.17329135  1
  H  H37  1  0.70720755  0.30407256  0.14789724  1
  H  H38  1  0.63548087  0.22273580  0.09943106  1
  H  H39  1  0.63209194  0.08887881  0.17789169  1
  H  H40  1  0.76214539  0.12266865  0.15128300  1
  H  H41  1  0.87847421  0.21468839  0.22604800  1
  H  H42  1  0.93230477  0.24499962  0.34317194  1
  H  H43  1  0.98879841  0.16271374  0.43739375  1
  H  H44  1  0.93160987  0.35618248  0.68107331  1
  H  H45  1  0.83648901  0.38161632  0.80061985  1
  H  H46  1  0.54466679  0.30404566  0.80376655  1
  H  H47  1  0.63699712  0.37822865  0.84948302  1
  H  H48  1  0.71511887  0.20556669  0.87857011  1
  H  H49  1  0.60987333  0.14557849  0.84553734  1
  H  H50  1  0.59522104  0.23204278  0.91016540  1
  H  H51  1  0.68063809  0.26165830  0.51972372  1
  H  H52  1  0.62673943  0.14935625  0.41804769  1
  H  H53  1  0.57097229  0.12672947  0.29980042  1
  H  H54  1  0.73679141  0.56834416  0.16570106  1
  H  H55  1  0.69131112  0.68546773  0.14150970  1
  H  H56  1  0.78212362  0.62077727  0.09351852  1
  H  H57  1  0.91076192  0.63732452  0.17255048  1
  H  H58  1  0.86343635  0.76301729  0.15043844  1
  H  H59  1  0.77799888  0.87978248  0.23081186  1
  H  H60  1  0.74793029  0.93508753  0.35124773  1
  H  H61  1  0.83556875  0.98648520  0.44703013  1
  H  H62  1  0.64310415  0.93196142  0.68843130  1
  H  H63  1  0.62432180  0.84082318  0.80548096  1
  H  H64  1  0.70567746  0.54981604  0.79926378  1
  H  H65  1  0.63668539  0.64806892  0.84837936  1
  H  H66  1  0.80744338  0.72258044  0.87946237  1
  H  H67  1  0.86842537  0.61884214  0.84027245  1
  H  H68  1  0.78337471  0.60088772  0.90453489  1
  H  H69  1  0.72996825  0.67994027  0.51580368  1
  H  H70  1  0.83169199  0.62282307  0.41005834  1
  H  H71  1  0.85821662  0.56703579  0.28914389  1
  Pb  Pb72  1  0.03297630  0.00469793  0.99180665  1
  Pb  Pb73  1  0.99603648  0.48690501  0.00031406  1
  Pb  Pb74  1  0.48140628  0.01244835  0.00740951  1
  Pb  Pb75  1  0.52203117  0.49575107  0.02944477  1
  C  C76  1  0.33055339  0.31392300  0.81591708  1
  C  C77  1  0.30929900  0.28442227  0.74370010  1
  C  C78  1  0.27416672  0.18288399  0.72674240  1
  C  C79  1  0.26420878  0.15114495  0.65928394  1
  C  C80  1  0.28968987  0.21933480  0.60648986  1
  C  C81  1  0.28404723  0.18085855  0.53542954  1
  C  C82  1  0.30710069  0.07742461  0.51509788  1
  C  C83  1  0.24866606  0.18158838  0.41953862  1
  C  C84  1  0.21517599  0.20983857  0.35324311  1
  C  C85  1  0.16119898  0.14744874  0.30750312  1
  C  C86  1  0.14293926  0.19760686  0.24641809  1
  C  C87  1  0.18297770  0.29826776  0.24511434  1
  C  C88  1  0.18275910  0.36829155  0.18644307  1
  C  C89  1  0.25186175  0.24040737  0.47985316  1
  C  C90  1  0.32220925  0.32225422  0.62385644  1
  C  C91  1  0.33213200  0.35409933  0.69157331  1
  C  C92  1  0.29374895  0.68824029  0.81527972  1
  C  C93  1  0.27169862  0.70581064  0.74291126  1
  C  C94  1  0.17181392  0.73864583  0.72700669  1
  C  C95  1  0.14496911  0.74285026  0.65985184  1
  C  C96  1  0.21670815  0.71405854  0.60646310  1
  C  C97  1  0.18188340  0.71560196  0.53641802  1
  C  C98  1  0.08008253  0.69126253  0.52066783  1
  C  C99  1  0.18403272  0.74982934  0.42031793  1
  C  C100  1  0.21159240  0.78267197  0.35240809  1
  C  C101  1  0.14810199  0.83202445  0.30781216  1
  C  C102  1  0.19898612  0.85060775  0.24449208  1
  C  C103  1  0.30101649  0.81514334  0.24059410  1
  C  C104  1  0.37481292  0.81895651  0.18087001  1
  C  C105  1  0.24163253  0.74751875  0.47803499  1
  C  C106  1  0.31825672  0.68373097  0.62263027  1
  C  C107  1  0.34521913  0.67922844  0.69013782  1
  C  C108  1  0.69335203  0.14848071  0.18257794  1
  C  C109  1  0.72100781  0.16977563  0.25479449  1
  C  C110  1  0.82274902  0.20225423  0.26813720  1
  C  C111  1  0.85328113  0.21765591  0.33425921  1
  C  C112  1  0.78420047  0.19826061  0.38960688  1
  C  C113  1  0.82265239  0.20858022  0.45877237  1
  C  C114  1  0.92626371  0.18977545  0.47268107  1
  C  C115  1  0.82172167  0.24608441  0.57613123  1
  C  C116  1  0.79215781  0.27694593  0.64560577  1
  C  C117  1  0.85287719  0.32832616  0.69292423  1
  C  C118  1  0.80110487  0.34286022  0.75710606  1
  C  C119  1  0.70098646  0.30285743  0.75900925  1
  C  C120  1  0.62610826  0.30617915  0.81833641  1
  C  C121  1  0.76300026  0.23981029  0.51892169  1
  C  C122  1  0.68162065  0.16642583  0.37615809  1
  C  C123  1  0.65037725  0.15285044  0.30950096  1
  C  C124  1  0.84484912  0.69256003  0.17899681  1
  C  C125  1  0.81879877  0.71981186  0.25201676  1
  C  C126  1  0.78685917  0.82290381  0.27030002  1
  C  C127  1  0.77198629  0.85418815  0.33810717  1
  C  C128  1  0.78927876  0.78344417  0.38968373  1
  C  C129  1  0.78398818  0.82155384  0.46092227  1
  C  C130  1  0.80790716  0.92468190  0.47969191  1
  C  C131  1  0.75520576  0.82067201  0.57901768  1
  C  C132  1  0.72698107  0.79250866  0.64780878  1
  C  C133  1  0.67452583  0.85429400  0.69768398  1
  C  C134  1  0.66391967  0.80479642  0.76042011  1
  C  C135  1  0.70840248  0.70559736  0.75885306  1
  C  C136  1  0.70698254  0.63317065  0.81595085  1
  C  C137  1  0.75511697  0.76184713  0.51864063  1
  C  C138  1  0.81695914  0.67872969  0.37090360  1
  C  C139  1  0.83223694  0.64736271  0.30289939  1
  S  S140  1  0.28956022  0.05310282  0.43087865  1
  S  S141  1  0.24390711  0.33111723  0.31948491  1
  S  S142  1  0.05740150  0.70808518  0.43751414  1
  S  S143  1  0.33436714  0.75851939  0.31502344  1
  S  S144  1  0.95040771  0.20984668  0.55631087  1
  S  S145  1  0.67075298  0.24624574  0.68148305  1
  S  S146  1  0.79493602  0.94877591  0.56494211  1
  S  S147  1  0.76373911  0.67304899  0.67952741  1
  I  I148  1  0.25026263  0.88599621  0.00157615  1
  I  I149  1  0.23105262  0.55289929  0.02659164  1
  I  I150  1  0.71459742  0.07473535  0.00115457  1
  I  I151  1  0.74259726  0.42625980  0.97681012  1
  I  I152  1  0.10193976  0.24290102  0.98721684  1
  I  I153  1  0.92494998  0.71820235  0.00558479  1
  I  I154  1  0.43633676  0.27235420  0.99166888  1
  I  I155  1  0.57936261  0.76502127  0.02426843  1
  I  I156  1  0.97553903  0.95272329  0.84315553  1
  I  I157  1  0.96212981  0.98978943  0.14618458  1
  I  I158  1  0.02858049  0.51561804  0.83097868  1
  I  I159  1  0.90160414  0.40969528  0.14701980  1
  I  I160  1  0.46443182  0.01914764  0.83882160  1
  I  I161  1  0.40884381  0.10019410  0.15762896  1
  I  I162  1  0.47528382  0.53503553  0.88455707  1
  I  I163  1  0.50472468  0.49553782  0.20077019  1
  N  N164  1  0.24085016  0.36563538  0.85619488  1
  N  N165  1  0.27973180  0.35356091  0.14093787  1
  N  N166  1  0.35907814  0.77141091  0.84971064  1
  N  N167  1  0.36933377  0.72113560  0.13568082  1
  N  N168  1  0.65179936  0.24446602  0.14913833  1
  N  N169  1  0.63926201  0.21679551  0.86516454  1
  N  N170  1  0.75668666  0.63829420  0.14337260  1
  N  N171  1  0.79677200  0.64593412  0.86209357  1
