# generated using pymatgen
data_H14PbC11S(I2N)2
_symmetry_space_group_name_H-M   'P 1'
_cell_length_a   12.65876472
_cell_length_b   12.57821036
_cell_length_c   15.17243232
_cell_angle_alpha   89.57156156
_cell_angle_beta   89.79961445
_cell_angle_gamma   88.95518500
_symmetry_Int_Tables_number   1
_chemical_formula_structural   H14PbC11S(I2N)2
_chemical_formula_sum   'H56 Pb4 C44 S4 I16 N8'
_cell_volume   2415.34171706
_cell_formula_units_Z   4
loop_
 _symmetry_equiv_pos_site_id
 _symmetry_equiv_pos_as_xyz
  1  'x, y, z'
loop_
 _atom_site_type_symbol
 _atom_site_label
 _atom_site_symmetry_multiplicity
 _atom_site_fract_x
 _atom_site_fract_y
 _atom_site_fract_z
 _atom_site_occupancy
  H  H0  1  0.26216094  0.30149403  0.84250066  1
  H  H1  1  0.37178586  0.25141958  0.79859029  1
  H  H2  1  0.31100828  0.18518769  0.88062987  1
  H  H3  1  0.28039035  0.09280632  0.74958870  1
  H  H4  1  0.16093185  0.14849784  0.79282657  1
  H  H5  1  0.28969923  0.11560610  0.57783098  1
  H  H6  1  0.19537217  0.08824133  0.42114488  1
  H  H7  1  0.22592283  0.07360995  0.26020923  1
  H  H8  1  0.28896164  0.15314014  0.12846918  1
  H  H9  1  0.36873829  0.25626116  0.13648662  1
  H  H10  1  0.24257173  0.27787804  0.11342308  1
  H  H11  1  0.31173261  0.40389549  0.24893581  1
  H  H12  1  0.28237180  0.41837537  0.41037267  1
  H  H13  1  0.13657083  0.42298680  0.52253321  1
  H  H14  1  0.30597584  0.73085738  0.84475512  1
  H  H15  1  0.25909414  0.62374281  0.79540166  1
  H  H16  1  0.18992899  0.68219826  0.87767260  1
  H  H17  1  0.09983079  0.72719468  0.74872142  1
  H  H18  1  0.15816994  0.84160452  0.79431012  1
  H  H19  1  0.12277928  0.71734512  0.57891013  1
  H  H20  1  0.09393142  0.80932794  0.42081658  1
  H  H21  1  0.08003813  0.77798024  0.26047090  1
  H  H22  1  0.15960157  0.68789295  0.13592578  1
  H  H23  1  0.28516731  0.64124644  0.13711653  1
  H  H24  1  0.25891282  0.76867271  0.11263767  1
  H  H25  1  0.41070897  0.69064822  0.25066849  1
  H  H26  1  0.42434992  0.71811306  0.41148380  1
  H  H27  1  0.42856805  0.85868847  0.52233701  1
  H  H28  1  0.69754258  0.23723300  0.15630769  1
  H  H29  1  0.76259823  0.13025245  0.19706196  1
  H  H30  1  0.81722431  0.20376420  0.11713447  1
  H  H31  1  0.90511321  0.23412388  0.25121661  1
  H  H32  1  0.84257860  0.35124122  0.20814845  1
  H  H33  1  0.88376904  0.22117556  0.42033335  1
  H  H34  1  0.91253646  0.30538122  0.57701147  1
  H  H35  1  0.92841482  0.28113265  0.73857106  1
  H  H36  1  0.84602433  0.19886803  0.86952431  1
  H  H37  1  0.71883735  0.16669684  0.87141944  1
  H  H38  1  0.75253927  0.29255481  0.88659197  1
  H  H39  1  0.59845924  0.20385983  0.75386779  1
  H  H40  1  0.58302803  0.22330628  0.59243332  1
  H  H41  1  0.57075495  0.35576305  0.47834323  1
  H  H42  1  0.75018413  0.69437894  0.15119215  1
  H  H43  1  0.86238102  0.73023843  0.19668189  1
  H  H44  1  0.80349526  0.80874578  0.11846973  1
  H  H45  1  0.77194978  0.89668740  0.25001052  1
  H  H46  1  0.65202361  0.84502757  0.20940246  1
  H  H47  1  0.78200874  0.87740239  0.41868871  1
  H  H48  1  0.69711215  0.91164514  0.57593427  1
  H  H49  1  0.72305823  0.92775829  0.73728999  1
  H  H50  1  0.79544235  0.84517917  0.86891896  1
  H  H51  1  0.83967727  0.71914360  0.87007283  1
  H  H52  1  0.71126782  0.74598733  0.88505823  1
  H  H53  1  0.79740499  0.59229159  0.75446980  1
  H  H54  1  0.77625529  0.57672306  0.59292122  1
  H  H55  1  0.64064014  0.57150431  0.48124713  1
  Pb  Pb56  1  0.00224487  0.00245324  0.01537582  1
  Pb  Pb57  1  0.99525210  0.50355043  0.00770786  1
  Pb  Pb58  1  0.50079676  -0.00154399  0.01640310  1
  Pb  Pb59  1  0.49456063  0.49816038  0.96369563  1
  C  C60  1  0.23559350  0.16736761  0.75929546  1
  C  C61  1  0.21923181  0.22379460  0.67356349  1
  C  C62  1  0.24766818  0.19045319  0.59023216  1
  C  C63  1  0.21816744  0.26535356  0.52283801  1
  C  C64  1  0.23725688  0.25419805  0.42748052  1
  C  C65  1  0.22191234  0.15744777  0.38403343  1
  C  C66  1  0.23836510  0.14885138  0.29341033  1
  C  C67  1  0.27053242  0.23821387  0.24666789  1
  C  C68  1  0.28488479  0.33561806  0.28718603  1
  C  C69  1  0.26862431  0.34303930  0.37758134  1
  C  C70  1  0.16781146  0.35402051  0.55802387  1
  C  C71  1  0.17519345  0.76689328  0.75938409  1
  C  C72  1  0.23137161  0.78280479  0.67405968  1
  C  C73  1  0.19740625  0.75660254  0.59089618  1
  C  C74  1  0.27148764  0.78351473  0.52333382  1
  C  C75  1  0.25999966  0.76504047  0.42817022  1
  C  C76  1  0.16339405  0.78157871  0.38434174  1
  C  C77  1  0.15510144  0.76456366  0.29391958  1
  C  C78  1  0.24464807  0.73119552  0.24776634  1
  C  C79  1  0.34201658  0.71725271  0.28845120  1
  C  C80  1  0.34898430  0.73299181  0.37869998  1
  C  C81  1  0.36036493  0.82966981  0.55825160  1
  C  C82  1  0.82841387  0.27428622  0.24061900  1
  C  C83  1  0.77057346  0.28537727  0.32580256  1
  C  C84  1  0.80689695  0.25918221  0.40890982  1
  C  C85  1  0.73237541  0.28427992  0.47703134  1
  C  C86  1  0.74617788  0.26718781  0.57254563  1
  C  C87  1  0.84340403  0.28205154  0.61509502  1
  C  C88  1  0.85290421  0.26901040  0.70622182  1
  C  C89  1  0.76365170  0.24183899  0.75453070  1
  C  C90  1  0.66644025  0.22788094  0.71481362  1
  C  C91  1  0.65837868  0.23884429  0.62397427  1
  C  C92  1  0.64034313  0.32851822  0.44229950  1
  C  C93  1  0.72794205  0.82327434  0.24033606  1
  C  C94  1  0.71503377  0.76663378  0.32602439  1
  C  C95  1  0.74231374  0.80233786  0.40846882  1
  C  C96  1  0.71589111  0.72941082  0.47756308  1
  C  C97  1  0.73415284  0.74276993  0.57263014  1
  C  C98  1  0.72071796  0.84159377  0.61435111  1
  C  C99  1  0.73474604  0.85124714  0.70509794  1
  C  C100  1  0.76160149  0.76063775  0.75369492  1
  C  C101  1  0.77445939  0.66151541  0.71494356  1
  C  C102  1  0.76211613  0.65336638  0.62432238  1
  C  C103  1  0.66930081  0.63946397  0.44433211  1
  S  S104  1  0.15490349  0.34568752  0.66955606  1
  S  S105  1  0.35344450  0.84176773  0.66990416  1
  S  S106  1  0.64509663  0.34148693  0.33050862  1
  S  S107  1  0.65592258  0.64418255  0.33270070  1
  I  I108  1  0.25049808  0.02983614  0.99220357  1
  I  I109  1  0.24021814  0.44350828  0.00221457  1
  I  I110  1  0.75163243  0.96520777  0.01457905  1
  I  I111  1  0.74415983  0.51798809  0.98453510  1
  I  I112  1  0.96905830  0.25120975  0.01552365  1
  I  I113  1  0.04020091  0.75386711  0.99023588  1
  I  I114  1  0.55001880  0.24505696  0.02060963  1
  I  I115  1  0.47860208  0.74741983  0.94909147  1
  I  I116  1  0.96834313  0.01118918  0.80782073  1
  I  I117  1  0.97227606  0.99920403  0.22770233  1
  I  I118  1  0.00482527  0.52531544  0.80293811  1
  I  I119  1  0.98328300  0.55505686  0.21565485  1
  I  I120  1  0.50545343  0.02757752  0.80792323  1
  I  I121  1  0.49046200  0.01385908  0.22321435  1
  I  I122  1  0.42583528  0.47623379  0.75933482  1
  I  I123  1  0.48129942  0.51374793  0.16692610  1
  N  N124  1  0.29899692  0.23093027  0.82409780  1
  N  N125  1  0.29323668  0.23049908  0.15170863  1
  N  N126  1  0.23685501  0.69643029  0.82272313  1
  N  N127  1  0.23672518  0.70634316  0.15289608  1
  N  N128  1  0.77124655  0.20717155  0.17447234  1
  N  N129  1  0.77072844  0.22468943  0.85079664  1
  N  N130  1  0.79023715  0.75979110  0.17297928  1
  N  N131  1  0.77772633  0.76838118  0.84967941  1
