# generated using pymatgen
data_H18PbC16S2(I2N)2
_symmetry_space_group_name_H-M   'P 1'
_cell_length_a   12.18681183
_cell_length_b   12.08479480
_cell_length_c   20.05959098
_cell_angle_alpha   90.90054512
_cell_angle_beta   90.67153835
_cell_angle_gamma   88.74455129
_symmetry_Int_Tables_number   1
_chemical_formula_structural   H18PbC16S2(I2N)2
_chemical_formula_sum   'H72 Pb4 C64 S8 I16 N8'
_cell_volume   2953.01344230
_cell_formula_units_Z   4
loop_
 _symmetry_equiv_pos_site_id
 _symmetry_equiv_pos_as_xyz
  1  'x, y, z'
loop_
 _atom_site_type_symbol
 _atom_site_label
 _atom_site_symmetry_multiplicity
 _atom_site_fract_x
 _atom_site_fract_y
 _atom_site_fract_z
 _atom_site_occupancy
  H  H0  1  0.17016437  0.18802032  0.85193807  1
  H  H1  1  0.19095866  0.28119619  0.91420300  1
  H  H2  1  0.10168178  0.31165560  0.85329189  1
  H  H3  1  0.34435297  0.30414382  0.84871955  1
  H  H4  1  0.25205651  0.41748274  0.83514463  1
  H  H5  1  0.35715663  0.14824821  0.76560539  1
  H  H6  1  0.35309117  0.09645352  0.64603899  1
  H  H7  1  0.22989125  0.02644198  0.55257264  1
  H  H8  1  0.28188519  0.45858561  0.38966523  1
  H  H9  1  0.34179985  0.30157209  0.14635911  1
  H  H10  1  0.32135419  0.16251402  0.17069857  1
  H  H11  1  0.12972684  0.18575911  0.15792441  1
  H  H12  1  0.18539275  0.24356881  0.09136719  1
  H  H13  1  0.13479728  0.32594994  0.15234780  1
  H  H14  1  0.26482959  0.12851527  0.29741074  1
  H  H15  1  0.27427320  0.37058191  0.49768158  1
  H  H16  1  0.16433205  0.39385622  0.60351550  1
  H  H17  1  0.16889932  0.44557989  0.72330290  1
  H  H18  1  0.20033853  0.84521758  0.85255915  1
  H  H19  1  0.29271696  0.81835849  0.91337285  1
  H  H20  1  0.32727201  0.89910460  0.85077937  1
  H  H21  1  0.29969484  0.65634656  0.84967928  1
  H  H22  1  0.41919046  0.73234313  0.83446720  1
  H  H23  1  0.15557645  0.63676995  0.76486559  1
  H  H24  1  0.10324484  0.64074201  0.64532939  1
  H  H25  1  0.02646460  0.76550127  0.55436627  1
  H  H26  1  0.45689120  0.72450363  0.39093462  1
  H  H27  1  0.30481658  0.65172713  0.14766934  1
  H  H28  1  0.16835633  0.68870607  0.17050844  1
  H  H29  1  0.20607367  0.88001471  0.15637239  1
  H  H30  1  0.24843941  0.80911735  0.08898028  1
  H  H31  1  0.34224692  0.85512418  0.14516418  1
  H  H32  1  0.13121541  0.73547388  0.29653839  1
  H  H33  1  0.36960868  0.72449891  0.49727586  1
  H  H34  1  0.38876992  0.83217231  0.60470608  1
  H  H35  1  0.44234540  0.82583717  0.72403020  1
  H  H36  1  0.80820568  0.31454339  0.14853490  1
  H  H37  1  0.71550415  0.29807814  0.08638886  1
  H  H38  1  0.68773230  0.38838857  0.14769792  1
  H  H39  1  0.68949093  0.14378537  0.15157123  1
  H  H40  1  0.57864320  0.23905525  0.16484136  1
  H  H41  1  0.83901718  0.12204750  0.23515076  1
  H  H42  1  0.89327344  0.13080453  0.35404378  1
  H  H43  1  0.97108591  0.26191798  0.44315644  1
  H  H44  1  0.54840799  0.22621588  0.61257397  1
  H  H45  1  0.70787639  0.15212237  0.85213551  1
  H  H46  1  0.84553122  0.17485647  0.82839621  1
  H  H47  1  0.82076371  0.36838605  0.84646460  1
  H  H48  1  0.76157207  0.30775189  0.91073193  1
  H  H49  1  0.68242880  0.36138618  0.84976240  1
  H  H50  1  0.87852487  0.23118031  0.70081733  1
  H  H51  1  0.63145138  0.22512956  0.50422065  1
  H  H52  1  0.60776266  0.33622284  0.39639080  1
  H  H53  1  0.55326604  0.32792898  0.27713186  1
  H  H54  1  0.66265835  0.80182063  0.14639107  1
  H  H55  1  0.68705995  0.70718701  0.08553808  1
  H  H56  1  0.60435117  0.67633418  0.14760256  1
  H  H57  1  0.84629098  0.69620439  0.14994839  1
  H  H58  1  0.76755803  0.57800503  0.16447595  1
  H  H59  1  0.87167824  0.83928755  0.23503380  1
  H  H60  1  0.86663467  0.89321564  0.35433047  1
  H  H61  1  0.74007445  0.97580687  0.44443988  1
  H  H62  1  0.77264153  0.54247077  0.60712129  1
  H  H63  1  0.85553536  0.69452479  0.84953333  1
  H  H64  1  0.81679881  0.83245074  0.82838434  1
  H  H65  1  0.63033667  0.79568307  0.84763160  1
  H  H66  1  0.70273216  0.74644283  0.91211673  1
  H  H67  1  0.65264515  0.65704706  0.85437357  1
  H  H68  1  0.76881959  0.87053805  0.70294818  1
  H  H69  1  0.77699469  0.63008213  0.50189267  1
  H  H70  1  0.66663003  0.61243716  0.39426243  1
  H  H71  1  0.67163844  0.55813331  0.27483440  1
  Pb  Pb72  1  1.00781997  0.99377040  0.00175295  1
  Pb  Pb73  1  0.00478466  0.50763296  0.01040914  1
  Pb  Pb74  1  0.51574626  -0.00733434  0.00568200  1
  Pb  Pb75  1  0.49430436  0.48606782  0.98747589  1
  C  C76  1  0.26556020  0.32857741  0.82579094  1
  C  C77  1  0.26212626  0.29980770  0.75275030  1
  C  C78  1  0.31304757  0.20136892  0.73024697  1
  C  C79  1  0.31071590  0.17210402  0.66291079  1
  C  C80  1  0.25709527  0.24052900  0.61608181  1
  C  C81  1  0.25359211  0.20779358  0.54513326  1
  C  C82  1  0.24209164  0.09945263  0.52284414  1
  C  C83  1  0.25841585  0.23035541  0.42891963  1
  C  C84  1  0.26937296  0.27900042  0.36341776  1
  C  C85  1  0.28033379  0.39163228  0.35288945  1
  C  C86  1  0.28511761  0.28379804  0.24700565  1
  C  C87  1  0.28949800  0.24799300  0.17556626  1
  C  C88  1  0.27195736  0.21814011  0.30171660  1
  C  C89  1  0.26213652  0.28202524  0.49093620  1
  C  C90  1  0.20709958  0.33986253  0.63888445  1
  C  C91  1  0.20926746  0.36890351  0.70642224  1
  C  C92  1  0.33039134  0.73015307  0.82556884  1
  C  C93  1  0.30167991  0.73208134  0.75265313  1
  C  C94  1  0.20631556  0.68055765  0.72974252  1
  C  C95  1  0.17648243  0.68339915  0.66263180  1
  C  C96  1  0.24094411  0.73853339  0.61648695  1
  C  C97  1  0.20755308  0.74335834  0.54580404  1
  C  C98  1  0.09950439  0.75490764  0.52417558  1
  C  C99  1  0.22958575  0.74116512  0.42935194  1
  C  C100  1  0.27900205  0.73298354  0.36361596  1
  C  C101  1  0.39156492  0.72461316  0.35364912  1
  C  C102  1  0.28785191  0.72111980  0.24683265  1
  C  C103  1  0.25438365  0.71315670  0.17518617  1
  C  C104  1  0.22040912  0.73113933  0.30137508  1
  C  C105  1  0.28120457  0.73622000  0.49110082  1
  C  C106  1  0.33758322  0.78872912  0.63963667  1
  C  C107  1  0.36763753  0.78549857  0.70684087  1
  C  C108  1  0.66627421  0.22352352  0.17468069  1
  C  C109  1  0.69406153  0.22678378  0.24770475  1
  C  C110  1  0.78908140  0.17096123  0.27019687  1
  C  C111  1  0.81979011  0.17581920  0.33710201  1
  C  C112  1  0.75591329  0.23619675  0.38356561  1
  C  C113  1  0.79109545  0.24250677  0.45393123  1
  C  C114  1  0.89951382  0.25290092  0.47423155  1
  C  C115  1  0.77324259  0.24187360  0.57055195  1
  C  C116  1  0.72723295  0.23294524  0.63682257  1
  C  C117  1  0.61554404  0.22541141  0.64867101  1
  C  C118  1  0.72508347  0.21497394  0.75304472  1
  C  C119  1  0.76074097  0.20697813  0.82415045  1
  C  C120  1  0.78929997  0.22749370  0.69769047  1
  C  C121  1  0.71954487  0.23684081  0.50944239  1
  C  C122  1  0.65881565  0.28942853  0.36103778  1
  C  C123  1  0.62833659  0.28518164  0.29384671  1
  C  C124  1  0.77171260  0.66744993  0.17358945  1
  C  C125  1  0.76983617  0.69660383  0.24651937  1
  C  C126  1  0.82469147  0.79055661  0.26967607  1
  C  C127  1  0.82166415  0.82120467  0.33674872  1
  C  C128  1  0.76387298  0.75863243  0.38264836  1
  C  C129  1  0.75937431  0.79313331  0.45328120  1
  C  C130  1  0.74924553  0.90241318  0.47478562  1
  C  C131  1  0.76031637  0.77190715  0.56970487  1
  C  C132  1  0.76759385  0.72191312  0.63526275  1
  C  C133  1  0.77359514  0.60823210  0.64467105  1
  C  C134  1  0.78212135  0.71215345  0.75190482  1
  C  C135  1  0.79322856  0.74548735  0.82353835  1
  C  C136  1  0.77176797  0.78055465  0.69772418  1
  C  C137  1  0.76534584  0.71929916  0.50799992  1
  C  C138  1  0.71125601  0.66275424  0.35937209  1
  C  C139  1  0.71392349  0.63222065  0.29208962  1
  S  S140  1  0.24178386  0.08900812  0.43780467  1
  S  S141  1  0.29404114  0.42135883  0.27083596  1
  S  S142  1  0.08875898  0.75676703  0.43916197  1
  S  S143  1  0.42406067  0.71391246  0.27156792  1
  S  S144  1  0.91317948  0.25570793  0.55913616  1
  S  S145  1  0.58810741  0.21041067  0.73082625  1
  S  S146  1  0.74669556  0.91406768  0.55985251  1
  S  S147  1  0.78608526  0.57476505  0.72638053  1
  I  I148  1  0.26271350  0.06460396  0.99954780  1
  I  I149  1  0.24991628  0.41943574  0.00769968  1
  I  I150  1  0.76573088  0.89896753  0.00687455  1
  I  I151  1  0.74711339  0.54491066  0.99741346  1
  I  I152  1  0.94119159  0.25006497  0.00772484  1
  I  I153  1  0.10304197  0.74668383  0.99451347  1
  I  I154  1  0.58604062  0.23864010  0.98976298  1
  I  I155  1  0.44812244  0.74156039  0.00159972  1
  I  I156  1  0.02911814  0.00138340  0.84243324  1
  I  I157  1  0.03775374  0.00178862  0.17021693  1
  I  I158  1  0.99264685  0.48738042  0.84625403  1
  I  I159  1  0.00859946  0.48730433  0.16907478  1
  I  I160  1  0.52298642  0.97733993  0.84204144  1
  I  I161  1  0.51083806  0.96986805  0.16517618  1
  I  I162  1  0.52343818  0.49317607  0.82861805  1
  I  I163  1  0.50427426  0.49260708  0.14876974  1
  N  N164  1  0.17692336  0.27152147  0.86320199  1
  N  N165  1  0.17774682  0.25124996  0.14258009  1
  N  N166  1  0.28292976  0.82937870  0.86241879  1
  N  N167  1  0.26430755  0.82122400  0.13952295  1
  N  N168  1  0.72545707  0.31172595  0.13752252  1
  N  N169  1  0.75614893  0.31803492  0.85962654  1
  N  N170  1  0.67559154  0.71807437  0.13644864  1
  N  N171  1  0.68788550  0.73444530  0.86146051  1
