# generated using pymatgen
data_H20PbC18S(I2N)2
_symmetry_space_group_name_H-M   'P 1'
_cell_length_a   12.46182516
_cell_length_b   12.47390789
_cell_length_c   20.50442320
_cell_angle_alpha   91.89930426
_cell_angle_beta   90.69608400
_cell_angle_gamma   89.08629741
_symmetry_Int_Tables_number   1
_chemical_formula_structural   H20PbC18S(I2N)2
_chemical_formula_sum   'H80 Pb4 C72 S4 I16 N8'
_cell_volume   3184.99310457
_cell_formula_units_Z   4
loop_
 _symmetry_equiv_pos_site_id
 _symmetry_equiv_pos_as_xyz
  1  'x, y, z'
loop_
 _atom_site_type_symbol
 _atom_site_label
 _atom_site_symmetry_multiplicity
 _atom_site_fract_x
 _atom_site_fract_y
 _atom_site_fract_z
 _atom_site_occupancy
  H  H0  1  0.22981293  0.34850170  0.91691542  1
  H  H1  1  0.31611387  0.27798488  0.87108957  1
  H  H2  1  0.26756803  0.39675930  0.84641919  1
  H  H3  1  0.08513379  0.32648993  0.84642386  1
  H  H4  1  0.14130631  0.19756277  0.86057059  1
  H  H5  1  0.12858058  0.41827199  0.73932791  1
  H  H6  1  0.14079418  0.38370479  0.62030285  1
  H  H7  1  0.11769494  0.02539915  0.55798949  1
  H  H8  1  0.15949735  0.40503725  0.39355190  1
  H  H9  1  0.19297943  0.45870827  0.28044391  1
  H  H10  1  0.29149181  0.42682303  0.17720169  1
  H  H11  1  0.36693131  0.30720435  0.16363710  1
  H  H12  1  0.19550202  0.21639592  0.13771680  1
  H  H13  1  0.21818943  0.32110869  0.09039168  1
  H  H14  1  0.12985874  0.33456304  0.14951117  1
  H  H15  1  0.36031792  0.15861764  0.24130854  1
  H  H16  1  0.32558360  0.10447542  0.35393382  1
  H  H17  1  0.24420249  0.33985682  0.51600608  1
  H  H18  1  0.22232647  0.05232048  0.65340797  1
  H  H19  1  0.20680507  0.08643998  0.77205764  1
  H  H20  1  0.34693490  0.75424812  0.90837698  1
  H  H21  1  0.26251728  0.68383716  0.85855914  1
  H  H22  1  0.38634815  0.71675506  0.83412165  1
  H  H23  1  0.33363046  0.90886041  0.84649803  1
  H  H24  1  0.20091181  0.86522361  0.86150192  1
  H  H25  1  0.41129603  0.88265113  0.73342927  1
  H  H26  1  0.37081064  0.86873454  0.61501880  1
  H  H27  1  0.00199283  0.84517614  0.56292441  1
  H  H28  1  0.39406063  0.83988732  0.39677889  1
  H  H29  1  0.45884730  0.80686021  0.28409212  1
  H  H30  1  0.43783971  0.70959589  0.17667496  1
  H  H31  1  0.32202025  0.63311445  0.15921780  1
  H  H32  1  0.22497296  0.80590332  0.14206566  1
  H  H33  1  0.32847259  0.78087445  0.09112929  1
  H  H34  1  0.34223748  0.87029888  0.15229756  1
  H  H35  1  0.16661441  0.63996355  0.23435307  1
  H  H36  1  0.10342454  0.67041988  0.34694140  1
  H  H37  1  0.33552545  0.77455317  0.51149378  1
  H  H38  1  0.04859092  0.77132949  0.65744073  1
  H  H39  1  0.08821960  0.79120804  0.77512371  1
  H  H40  1  0.65825332  0.23400700  0.09149993  1
  H  H41  1  0.73735402  0.15264128  0.13207589  1
  H  H42  1  0.62343725  0.19733157  0.16544745  1
  H  H43  1  0.70157727  0.38527294  0.15084012  1
  H  H44  1  0.82604014  0.31460104  0.14138074  1
  H  H45  1  0.59587988  0.36148417  0.26008273  1
  H  H46  1  0.62351778  0.36622709  0.37974879  1
  H  H47  1  0.98098938  0.38245532  0.44380796  1
  H  H48  1  0.59838746  0.34055647  0.61000754  1
  H  H49  1  0.53535322  0.29376014  0.71947915  1
  H  H50  1  0.55858553  0.18689096  0.81718103  1
  H  H51  1  0.67512677  0.10567066  0.82807718  1
  H  H52  1  0.76949989  0.26044654  0.86912316  1
  H  H53  1  0.65482739  0.24864952  0.90894993  1
  H  H54  1  0.66378186  0.34231215  0.85293642  1
  H  H55  1  0.83638445  0.12929981  0.75640233  1
  H  H56  1  0.89928907  0.17651050  0.64723032  1
  H  H57  1  0.66385823  0.26210511  0.48808612  1
  H  H58  1  0.95402388  0.26792212  0.35284685  1
  H  H59  1  0.92644175  0.26485493  0.23332699  1
  H  H60  1  0.76712753  0.64403924  0.09151576  1
  H  H61  1  0.83736121  0.73467935  0.13277913  1
  H  H62  1  0.81353251  0.61761908  0.16568501  1
  H  H63  1  0.61431274  0.66617091  0.15140171  1
  H  H64  1  0.65963277  0.79890119  0.13933432  1
  H  H65  1  0.63605321  0.58340979  0.26138608  1
  H  H66  1  0.63527405  0.62052312  0.38055408  1
  H  H67  1  0.61405300  0.98087409  0.44199913  1
  H  H68  1  0.66429082  0.59913756  0.60522853  1
  H  H69  1  0.71091231  0.53491577  0.71503257  1
  H  H70  1  0.82062090  0.55764334  0.81741471  1
  H  H71  1  0.89186693  0.67779768  0.83344057  1
  H  H72  1  0.71275981  0.76522232  0.85826384  1
  H  H73  1  0.75268089  0.66758579  0.90845408  1
  H  H74  1  0.65830740  0.64389580  0.85066436  1
  H  H75  1  0.86965087  0.83362635  0.76144803  1
  H  H76  1  0.82367946  0.89707059  0.65177551  1
  H  H77  1  0.74133962  0.66325580  0.48710545  1
  H  H78  1  0.72608807  0.94706074  0.34943549  1
  H  H79  1  0.72443705  0.91040204  0.23037547  1
  Pb  Pb80  1  0.00011303  1.00454603  0.00024211  1
  Pb  Pb81  1  0.01668947  0.52301760  1.00043505  1
  Pb  Pb82  1  0.51821394  0.98818149  0.99600029  1
  Pb  Pb83  1  0.50825088  0.48886928  0.98359553  1
  C  C84  1  0.15365492  0.27287468  0.83581601  1
  C  C85  1  0.16864432  0.25497399  0.76387664  1
  C  C86  1  0.15094944  0.33825120  0.72043503  1
  C  C87  1  0.15803160  0.31877181  0.65336224  1
  C  C88  1  0.18155993  0.21517496  0.62786786  1
  C  C89  1  0.18131915  0.19036844  0.55725851  1
  C  C90  1  0.14920224  0.09175176  0.53167965  1
  C  C91  1  0.20857517  0.21102402  0.44536122  1
  C  C92  1  0.23714689  0.24945027  0.38118955  1
  C  C93  1  0.20337648  0.35087287  0.36019804  1
  C  C94  1  0.22191398  0.38084392  0.29651490  1
  C  C95  1  0.27534569  0.31074664  0.25250922  1
  C  C96  1  0.29117843  0.33982430  0.18300752  1
  C  C97  1  0.31432286  0.21201896  0.27420557  1
  C  C98  1  0.29517326  0.18165796  0.33756696  1
  C  C99  1  0.21335380  0.25943828  0.50692204  1
  C  C100  1  0.20153571  0.13278455  0.67187420  1
  C  C101  1  0.19490500  0.15226085  0.73885414  1
  C  C102  1  0.27459364  0.84702295  0.83429985  1
  C  C103  1  0.25260274  0.83688088  0.76224501  1
  C  C104  1  0.33173210  0.85787039  0.71649262  1
  C  C105  1  0.30891335  0.84925536  0.64972684  1
  C  C106  1  0.20625659  0.81901095  0.62719693  1
  C  C107  1  0.17761991  0.81154339  0.55744503  1
  C  C108  1  0.07288336  0.82388084  0.53474676  1
  C  C109  1  0.19944032  0.78345692  0.44450783  1
  C  C110  1  0.24278882  0.75969067  0.37960638  1
  C  C111  1  0.34437294  0.79549325  0.36135949  1
  C  C112  1  0.38049949  0.77753400  0.29781286  1
  C  C113  1  0.31615204  0.72358923  0.25113766  1
  C  C114  1  0.35052398  0.70866962  0.18164255  1
  C  C115  1  0.21662539  0.68462481  0.26966937  1
  C  C116  1  0.18062276  0.70215190  0.33299454  1
  C  C117  1  0.24982426  0.78984699  0.50487540  1
  C  C118  1  0.12802125  0.79711812  0.67361121  1
  C  C119  1  0.15043232  0.80669262  0.73995357  1
  C  C120  1  0.74828112  0.31473480  0.16571475  1
  C  C121  1  0.76011005  0.31306566  0.23846830  1
  C  C122  1  0.67462003  0.34014415  0.28033826  1
  C  C123  1  0.69013406  0.34290238  0.34793393  1
  C  C124  1  0.79157141  0.31910501  0.37521667  1
  C  C125  1  0.81412685  0.32343668  0.44589620  1
  C  C126  1  0.91370438  0.35301298  0.47074862  1
  C  C127  1  0.79343903  0.29446264  0.55764344  1
  C  C128  1  0.75363932  0.26299904  0.62106881  1
  C  C129  1  0.65014006  0.29352131  0.64185798  1
  C  C130  1  0.61498968  0.26740218  0.70349923  1
  C  C131  1  0.68213662  0.21003601  0.74573594  1
  C  C132  1  0.64620589  0.18462920  0.81292076  1
  C  C133  1  0.78445576  0.17698422  0.72469697  1
  C  C134  1  0.81982337  0.20340982  0.66325887  1
  C  C135  1  0.74469075  0.29198574  0.49663914  1
  C  C136  1  0.87578263  0.29020727  0.33271976  1
  C  C137  1  0.86039383  0.28757125  0.26556576  1
  C  C138  1  0.67608714  0.72472679  0.16517815  1
  C  C139  1  0.68088430  0.74446980  0.23768263  1
  C  C140  1  0.65703129  0.66310477  0.28072739  1
  C  C141  1  0.65654756  0.68402360  0.34797099  1
  C  C142  1  0.67935611  0.78712344  0.37390628  1
  C  C143  1  0.67678563  0.81352275  0.44445426  1
  C  C144  1  0.64564518  0.91387485  0.46920290  1
  C  C145  1  0.70765516  0.79398325  0.55688598  1
  C  C146  1  0.73963703  0.75308580  0.62066536  1
  C  C147  1  0.71054301  0.64997392  0.63911500  1
  C  C148  1  0.73664655  0.61410010  0.70107177  1
  C  C149  1  0.79254216  0.68008472  0.74607503  1
  C  C150  1  0.81613806  0.64521607  0.81430187  1
  C  C151  1  0.82433750  0.78175140  0.72738235  1
  C  C152  1  0.79815611  0.81775178  0.66559552  1
  C  C153  1  0.71032879  0.74464733  0.49553256  1
  C  C154  1  0.70496057  0.86748195  0.33031653  1
  C  C155  1  0.70549972  0.84669530  0.26332120  1
  S  S156  1  0.16008754  0.08200254  0.44908489  1
  S  S157  1  0.06259100  0.80794642  0.45216470  1
  S  S158  1  0.92347881  0.33991487  0.55286941  1
  S  S159  1  0.65940624  0.92477494  0.55201325  1
  I  I160  1  0.25964980  -0.00643637  0.99914307  1
  I  I161  1  0.26079576  0.51075327  0.02791973  1
  I  I162  1  0.75445930  0.08176362  0.99571237  1
  I  I163  1  0.75853190  0.47274662  0.98250712  1
  I  I164  1  0.02926669  0.27095412  0.99501320  1
  I  I165  1  0.90967205  0.76633086  0.99888837  1
  I  I166  1  0.46558919  0.23941904  0.97070244  1
  I  I167  1  0.49101865  0.73918428  0.01106508  1
  I  I168  1  0.98127317  0.00303103  0.84482418  1
  I  I169  1  1.00013933  0.01608848  0.15758668  1
  I  I170  1  0.10007754  0.56986523  0.85415381  1
  I  I171  1  0.00170173  0.50827730  0.16029698  1
  I  I172  1  0.56739794  0.91067877  0.84797880  1
  I  I173  1  0.49974086  0.01008505  0.15788257  1
  I  I174  1  0.50569401  0.50242229  0.82260973  1
  I  I175  1  0.52144912  0.47609951  0.13518859  1
  N  N176  1  0.24846767  0.32683898  0.86903915  1
  N  N177  1  0.20342219  0.29854969  0.13773095  1
  N  N178  1  0.32061962  0.74391527  0.86038994  1
  N  N179  1  0.30708054  0.79703684  0.13942715  1
  N  N180  1  0.68785600  0.21948091  0.13775075  1
  N  N181  1  0.68738459  0.26471036  0.86380687  1
  N  N182  1  0.77919749  0.67756272  0.13789479  1
  N  N183  1  0.72994463  0.68325917  0.86087927  1
