# generated using pymatgen
data_H18PbC13S(I2N)2
_symmetry_space_group_name_H-M   'P 1'
_cell_length_a   12.51009014
_cell_length_b   12.34535988
_cell_length_c   17.66491092
_cell_angle_alpha   88.52470452
_cell_angle_beta   88.13622331
_cell_angle_gamma   89.99296044
_symmetry_Int_Tables_number   1
_chemical_formula_structural   H18PbC13S(I2N)2
_chemical_formula_sum   'H72 Pb4 C52 S4 I16 N8'
_cell_volume   2725.84864536
_cell_formula_units_Z   4
loop_
 _symmetry_equiv_pos_site_id
 _symmetry_equiv_pos_as_xyz
  1  'x, y, z'
loop_
 _atom_site_type_symbol
 _atom_site_label
 _atom_site_symmetry_multiplicity
 _atom_site_fract_x
 _atom_site_fract_y
 _atom_site_fract_z
 _atom_site_occupancy
  H  H0  1  0.18126519  0.32186008  0.89395810  1
  H  H1  1  0.29786238  0.38409126  0.86590753  1
  H  H2  1  0.29218781  0.25167800  0.88131423  1
  H  H3  1  0.18810590  0.37680429  0.75743954  1
  H  H4  1  0.16887377  0.23498456  0.77502692  1
  H  H5  1  0.36598454  0.20344504  0.75706784  1
  H  H6  1  0.38734568  0.34439686  0.74173734  1
  H  H7  1  0.26654989  0.09778973  0.66293701  1
  H  H8  1  0.23763726  0.07504060  0.52627813  1
  H  H9  1  0.33412935  0.05318429  0.40688972  1
  H  H10  1  0.13676918  0.37872276  0.23016288  1
  H  H11  1  0.11254391  0.24897991  0.19268144  1
  H  H12  1  0.29298667  0.25183283  0.13668828  1
  H  H13  1  0.22209486  0.35727782  0.10822124  1
  H  H14  1  0.31750452  0.37323407  0.17264559  1
  H  H15  1  0.19909013  0.37555469  0.36997527  1
  H  H16  1  0.32585134  0.40891898  0.48182127  1
  H  H17  1  0.35135573  0.43195092  0.61857297  1
  H  H18  1  0.31957374  0.82080233  0.89201289  1
  H  H19  1  0.37467000  0.69989461  0.86879032  1
  H  H20  1  0.24437613  0.71211536  0.88405370  1
  H  H21  1  0.37363598  0.81394043  0.75656093  1
  H  H22  1  0.23425793  0.83743882  0.77298123  1
  H  H23  1  0.19813808  0.63762454  0.76097768  1
  H  H24  1  0.33660815  0.61381667  0.74615997  1
  H  H25  1  0.09524828  0.73589802  0.66298530  1
  H  H26  1  0.07288720  0.76166724  0.52496506  1
  H  H27  1  0.05240020  0.66247817  0.40970916  1
  H  H28  1  0.37474114  0.86475083  0.22675896  1
  H  H29  1  0.24758005  0.88822274  0.18765415  1
  H  H30  1  0.25514587  0.70892562  0.13449133  1
  H  H31  1  0.35957092  0.78283072  0.10752842  1
  H  H32  1  0.37181882  0.68168145  0.17381915  1
  H  H33  1  0.37019385  0.80183556  0.36732731  1
  H  H34  1  0.40299404  0.67432563  0.48399741  1
  H  H35  1  0.42566431  0.65188314  0.62228583  1
  H  H36  1  0.67179584  0.30779825  0.10491506  1
  H  H37  1  0.62195790  0.18549804  0.13490203  1
  H  H38  1  0.75127621  0.20194659  0.11589476  1
  H  H39  1  0.62311081  0.30401033  0.24077584  1
  H  H40  1  0.76185699  0.32986160  0.22159123  1
  H  H41  1  0.80276671  0.13252559  0.24274584  1
  H  H42  1  0.66500551  0.10484675  0.25882062  1
  H  H43  1  0.90442543  0.23086434  0.33740820  1
  H  H44  1  0.92527339  0.26036212  0.47431720  1
  H  H45  1  0.94475656  0.16155795  0.59377464  1
  H  H46  1  0.61968618  0.35848298  0.77008100  1
  H  H47  1  0.74641625  0.38102712  0.80968018  1
  H  H48  1  0.73919697  0.19852854  0.86571759  1
  H  H49  1  0.63273244  0.26937049  0.89040163  1
  H  H50  1  0.62327043  0.17227319  0.82550097  1
  H  H51  1  0.62610775  0.29900283  0.63006519  1
  H  H52  1  0.59445184  0.17453251  0.51751734  1
  H  H53  1  0.57334700  0.14878086  0.38029461  1
  H  H54  1  0.69348554  0.67321135  0.10770710  1
  H  H55  1  0.80805511  0.61247970  0.13663260  1
  H  H56  1  0.80492664  0.74413617  0.11487934  1
  H  H57  1  0.69365641  0.62615564  0.24466172  1
  H  H58  1  0.67285894  0.76683413  0.22437446  1
  H  H59  1  0.86831857  0.80313413  0.23918282  1
  H  H60  1  0.89150356  0.66252126  0.25328620  1
  H  H61  1  0.76944314  0.90737023  0.33761692  1
  H  H62  1  0.73915715  0.92976551  0.47521452  1
  H  H63  1  0.83804732  0.95040961  0.59045729  1
  H  H64  1  0.65011661  0.62083469  0.77622048  1
  H  H65  1  0.62198251  0.74884484  0.81539201  1
  H  H66  1  0.80109852  0.74974801  0.86633938  1
  H  H67  1  0.73325359  0.64017471  0.89428582  1
  H  H68  1  0.83128341  0.63094990  0.82739376  1
  H  H69  1  0.70215812  0.62817863  0.63370120  1
  H  H70  1  0.82561081  0.59545318  0.51545505  1
  H  H71  1  0.85071946  0.57236274  0.37712555  1
  Pb  Pb72  1  1.00410110  0.00494303  0.99388527  1
  Pb  Pb73  1  0.98247348  0.49420869  0.99232723  1
  Pb  Pb74  1  0.50317287  0.00091632  0.99044867  1
  Pb  Pb75  1  0.48346884  0.50458445  0.01725836  1
  C  C76  1  0.22651065  0.30188843  0.77740112  1
  C  C77  1  0.33046586  0.27819581  0.73330830  1
  C  C78  1  0.31281344  0.26583465  0.65013103  1
  C  C79  1  0.28006026  0.16588433  0.62305938  1
  C  C80  1  0.26453745  0.15302464  0.54621107  1
  C  C81  1  0.28177844  0.23935759  0.49355066  1
  C  C82  1  0.26970236  0.22035864  0.41220668  1
  C  C83  1  0.29692431  0.12271979  0.37962363  1
  C  C84  1  0.21935617  0.24998634  0.28665081  1
  C  C85  1  0.17341673  0.30027128  0.21765062  1
  C  C86  1  0.22667225  0.29400663  0.35739471  1
  C  C87  1  0.31188468  0.34033945  0.52114079  1
  C  C88  1  0.32710266  0.35302784  0.59834257  1
  C  C89  1  0.29816705  0.77672237  0.77721510  1
  C  C90  1  0.27272390  0.67299181  0.73615068  1
  C  C91  1  0.26156882  0.69129746  0.65223556  1
  C  C92  1  0.16282036  0.72264974  0.62366144  1
  C  C93  1  0.15010697  0.73616100  0.54611725  1
  C  C94  1  0.23559482  0.71819608  0.49422415  1
  C  C95  1  0.21739811  0.72834048  0.41236068  1
  C  C96  1  0.12191613  0.69898953  0.38090081  1
  C  C97  1  0.24829850  0.77748508  0.28454717  1
  C  C98  1  0.29831760  0.82649202  0.21457537  1
  C  C99  1  0.29047589  0.77204507  0.35574383  1
  C  C100  1  0.33542186  0.68927258  0.52300093  1
  C  C101  1  0.34790506  0.67609182  0.60095698  1
  C  C102  1  0.69880900  0.26807131  0.22076060  1
  C  C103  1  0.72735054  0.16600209  0.26629743  1
  C  C104  1  0.73784702  0.18688825  0.34930233  1
  C  C105  1  0.83630311  0.21904404  0.37696704  1
  C  C106  1  0.84823044  0.23439338  0.45395039  1
  C  C107  1  0.76232690  0.21744997  0.50633435  1
  C  C108  1  0.78003632  0.22796185  0.58792166  1
  C  C109  1  0.87530125  0.19861441  0.62095049  1
  C  C110  1  0.74773675  0.27506263  0.71416455  1
  C  C111  1  0.69615220  0.32029629  0.78335148  1
  C  C112  1  0.70616967  0.27046301  0.64291279  1
  C  C113  1  0.66261756  0.18835232  0.47829435  1
  C  C114  1  0.65091011  0.17337531  0.40090714  1
  C  C115  1  0.73169053  0.70092851  0.22212346  1
  C  C116  1  0.83319968  0.72758925  0.26367305  1
  C  C117  1  0.81277971  0.73866935  0.34760491  1
  C  C118  1  0.78076764  0.83856241  0.37658780  1
  C  C119  1  0.76508670  0.85142412  0.45415363  1
  C  C120  1  0.78196962  0.76494604  0.50588977  1
  C  C121  1  0.77208671  0.78355341  0.58795576  1
  C  C122  1  0.80173596  0.88040013  0.61944642  1
  C  C123  1  0.72915407  0.75167372  0.71673652  1
  C  C124  1  0.68486411  0.69992697  0.78786773  1
  C  C125  1  0.73142245  0.70916063  0.64512891  1
  C  C126  1  0.81128607  0.66382537  0.47667432  1
  C  C127  1  0.82611348  0.65109188  0.39867321  1
  S  S128  1  0.26643641  0.11858285  0.28652341  1
  S  S129  1  0.11945503  0.72768107  0.28609907  1
  S  S130  1  0.87648236  0.22519617  0.71509611  1
  S  S131  1  0.77810993  0.88236951  0.71483532  1
  I  I132  1  0.26253221  0.93114207  0.00746692  1
  I  I133  1  0.23335751  0.56320409  0.01731591  1
  I  I134  1  0.75898980  0.06754907  0.98788897  1
  I  I135  1  0.73105023  0.43860131  0.98542141  1
  I  I136  1  0.07535575  0.25640829  0.00799362  1
  I  I137  1  0.94457161  0.75211630  0.99561791  1
  I  I138  1  0.43926296  0.25046963  1.00130965  1
  I  I139  1  0.56825453  0.74677914  0.00021397  1
  I  I140  1  0.05237152  1.00016802  0.81605627  1
  I  I141  1  0.00284477  0.00839874  0.17570875  1
  I  I142  1  0.98517474  0.50805610  0.80957090  1
  I  I143  1  0.93973412  0.47020725  0.17162411  1
  I  I144  1  0.50497647  0.01203216  0.80825214  1
  I  I145  1  0.51902739  0.00902981  0.16836339  1
  I  I146  1  0.47033184  0.50670688  0.83969823  1
  I  I147  1  0.47216159  0.50282770  0.20112573  1
  N  N148  1  0.25003073  0.31636797  0.85910363  1
  N  N149  1  0.25696284  0.32189313  0.15528410  1
  N  N150  1  0.31045439  0.75154136  0.86014458  1
  N  N151  1  0.32303310  0.74464028  0.15452012  1
  N  N152  1  0.68505565  0.24032648  0.13938332  1
  N  N153  1  0.67166980  0.23536385  0.84419518  1
  N  N154  1  0.75991889  0.68200373  0.14053587  1
  N  N155  1  0.76744966  0.67970185  0.84702620  1
