# generated using pymatgen
data_H18PbC13S(I2N)2
_symmetry_space_group_name_H-M   'P 1'
_cell_length_a   12.28857169
_cell_length_b   12.28791210
_cell_length_c   17.78914372
_cell_angle_alpha   90.04224754
_cell_angle_beta   89.58750579
_cell_angle_gamma   89.58119308
_symmetry_Int_Tables_number   1
_chemical_formula_structural   H18PbC13S(I2N)2
_chemical_formula_sum   'H72 Pb4 C52 S4 I16 N8'
_cell_volume   2686.03430175
_cell_formula_units_Z   4
loop_
 _symmetry_equiv_pos_site_id
 _symmetry_equiv_pos_as_xyz
  1  'x, y, z'
loop_
 _atom_site_type_symbol
 _atom_site_label
 _atom_site_symmetry_multiplicity
 _atom_site_fract_x
 _atom_site_fract_y
 _atom_site_fract_z
 _atom_site_occupancy
  H  H0  1  0.31046310  0.24247698  0.89619498  1
  H  H1  1  0.26084038  0.13254231  0.85413243  1
  H  H2  1  0.17615138  0.22955710  0.88394796  1
  H  H3  1  0.23982573  0.35654432  0.79164687  1
  H  H4  1  0.34499998  0.26372631  0.76382008  1
  H  H5  1  0.09920792  0.21951946  0.75319668  1
  H  H6  1  0.20240429  0.12955985  0.72280548  1
  H  H7  1  0.25507356  0.13827373  0.58306921  1
  H  H8  1  0.29997639  0.42722980  0.42215496  1
  H  H9  1  0.34563220  0.39248869  0.28839420  1
  H  H10  1  0.34893239  0.12312330  0.19867883  1
  H  H11  1  0.38520569  0.26220591  0.19047892  1
  H  H12  1  0.16673664  0.16647557  0.16518887  1
  H  H13  1  0.18626108  0.30105252  0.16791030  1
  H  H14  1  0.25236830  0.22500950  0.10295716  1
  H  H15  1  0.24036377  0.06065291  0.31253591  1
  H  H16  1  0.19361063  0.09520815  0.44606597  1
  H  H17  1  0.14041061  0.45526162  0.50434817  1
  H  H18  1  0.24925903  0.69174143  0.89631885  1
  H  H19  1  0.13881885  0.74304169  0.85526498  1
  H  H20  1  0.23705241  0.82575358  0.88254782  1
  H  H21  1  0.36143321  0.75721145  0.78888543  1
  H  H22  1  0.26634910  0.65379884  0.76443972  1
  H  H23  1  0.22296535  0.89982436  0.75101116  1
  H  H24  1  0.13319538  0.79748916  0.72269772  1
  H  H25  1  0.14149921  0.74231938  0.58322523  1
  H  H26  1  0.42642786  0.69639093  0.42085220  1
  H  H27  1  0.39170903  0.64757208  0.28815755  1
  H  H28  1  0.12150682  0.65640347  0.19784769  1
  H  H29  1  0.25770503  0.60826812  0.19094516  1
  H  H30  1  0.18177994  0.83675045  0.16549525  1
  H  H31  1  0.31285273  0.79816909  0.16603717  1
  H  H32  1  0.23036772  0.74558914  0.10214941  1
  H  H33  1  0.06102012  0.76298038  0.31176233  1
  H  H34  1  0.09565240  0.81122284  0.44467673  1
  H  H35  1  0.45293805  0.86294912  0.49938752  1
  H  H36  1  0.75745895  0.18952783  0.10302205  1
  H  H37  1  0.86582398  0.24308347  0.14528050  1
  H  H38  1  0.76694333  0.32431451  0.11506324  1
  H  H39  1  0.64085246  0.25984305  0.20723803  1
  H  H40  1  0.73287074  0.15422259  0.23360857  1
  H  H41  1  0.77499457  0.40004375  0.25033892  1
  H  H42  1  0.86708263  0.29664822  0.27672854  1
  H  H43  1  0.86488307  0.25818849  0.41851353  1
  H  H44  1  0.57505540  0.19053842  0.57973424  1
  H  H45  1  0.61056753  0.14892081  0.71333071  1
  H  H46  1  0.87832904  0.15660913  0.80276228  1
  H  H47  1  0.73931761  0.12042306  0.81215475  1
  H  H48  1  0.83359480  0.34144467  0.83374694  1
  H  H49  1  0.69946624  0.31935498  0.83310668  1
  H  H50  1  0.77868229  0.25797998  0.89778006  1
  H  H51  1  0.93728710  0.26885525  0.68753945  1
  H  H52  1  0.90174669  0.31227264  0.55479761  1
  H  H53  1  0.53322627  0.33071880  0.49463316  1
  H  H54  1  0.80784734  0.74959548  0.10189809  1
  H  H55  1  0.75181431  0.86000377  0.14175043  1
  H  H56  1  0.67333963  0.75836627  0.11464237  1
  H  H57  1  0.73834915  0.64043504  0.21069067  1
  H  H58  1  0.84526430  0.73308009  0.23232391  1
  H  H59  1  0.60119694  0.78545898  0.24946044  1
  H  H60  1  0.70750777  0.87215790  0.27524585  1
  H  H61  1  0.75682544  0.86549083  0.41781289  1
  H  H62  1  0.80087656  0.57579259  0.57695768  1
  H  H63  1  0.84552933  0.60865998  0.71049536  1
  H  H64  1  0.83744985  0.87776917  0.80367521  1
  H  H65  1  0.88390987  0.74095555  0.80925116  1
  H  H66  1  0.65658128  0.82073169  0.83455547  1
  H  H67  1  0.69138668  0.68789970  0.83193882  1
  H  H68  1  0.74399621  0.76886239  0.89740823  1
  H  H69  1  0.73582038  0.94125238  0.68904150  1
  H  H70  1  0.69074953  0.90838586  0.55582165  1
  H  H71  1  0.64142931  0.54906849  0.49558182  1
  Pb  Pb72  1  0.00983552  0.98880342  0.00747875  1
  Pb  Pb73  1  0.01559370  0.49185337  0.00227612  1
  Pb  Pb74  1  0.51388108  0.99683105  0.99939464  1
  Pb  Pb75  1  0.50983578  0.48836919  0.99768090  1
  C  C76  1  0.26012022  0.27024758  0.78292681  1
  C  C77  1  0.18155403  0.21648092  0.72823640  1
  C  C78  1  0.18237529  0.26602290  0.65141481  1
  C  C79  1  0.21933072  0.21973294  0.58534826  1
  C  C80  1  0.20838815  0.28964905  0.52142698  1
  C  C81  1  0.24100474  0.26458896  0.44344965  1
  C  C82  1  0.28464872  0.34729581  0.39785458  1
  C  C83  1  0.31008867  0.32800169  0.32272373  1
  C  C84  1  0.29334004  0.22523241  0.29088233  1
  C  C85  1  0.32107457  0.20669281  0.20957707  1
  C  C86  1  0.25286558  0.14143295  0.33642050  1
  C  C87  1  0.22707919  0.16074506  0.41178964  1
  C  C88  1  0.16152774  0.38828545  0.54143985  1
  C  C89  1  0.27476801  0.73898004  0.78182774  1
  C  C90  1  0.22016368  0.81739458  0.72683622  1
  C  C91  1  0.26818984  0.81710159  0.64939964  1
  C  C92  1  0.22165368  0.77973606  0.58415596  1
  C  C93  1  0.28977041  0.79261709  0.51923537  1
  C  C94  1  0.26438996  0.75939893  0.44185945  1
  C  C95  1  0.34675765  0.71282325  0.39660696  1
  C  C96  1  0.32731657  0.68566358  0.32204804  1
  C  C97  1  0.22472974  0.70438031  0.29044674  1
  C  C98  1  0.20641765  0.67692433  0.20941468  1
  C  C99  1  0.14139826  0.74841741  0.33563621  1
  C  C100  1  0.16074488  0.77523659  0.41053879  1
  C  C101  1  0.38714759  0.84133636  0.53752952  1
  C  C102  1  0.72701676  0.23953943  0.21596169  1
  C  C103  1  0.77986692  0.31625250  0.27234236  1
  C  C104  1  0.72986023  0.31005959  0.34917556  1
  C  C105  1  0.77951072  0.28248950  0.41578282  1
  C  C106  1  0.70740101  0.28578674  0.47942835  1
  C  C107  1  0.73423518  0.25746437  0.55760954  1
  C  C108  1  0.65387232  0.21021620  0.60377186  1
  C  C109  1  0.67378852  0.18668050  0.67884573  1
  C  C110  1  0.77546765  0.20862670  0.71038269  1
  C  C111  1  0.79464275  0.18394753  0.79187294  1
  C  C112  1  0.85715781  0.25238156  0.66430833  1
  C  C113  1  0.83711430  0.27660915  0.58902628  1
  C  C114  1  0.60356359  0.31735196  0.45837821  1
  C  C115  1  0.75947109  0.72672856  0.21630721  1
  C  C116  1  0.68444403  0.78595487  0.27201380  1
  C  C117  1  0.68539218  0.73876981  0.34935885  1
  C  C118  1  0.72082844  0.78476214  0.41536130  1
  C  C119  1  0.70848317  0.71462263  0.47914206  1
  C  C120  1  0.74009619  0.73875686  0.55705724  1
  C  C121  1  0.78474074  0.65550585  0.60183060  1
  C  C122  1  0.80984966  0.67392930  0.67681971  1
  C  C123  1  0.79127254  0.77634142  0.70941956  1
  C  C124  1  0.81627291  0.79323162  0.79099459  1
  C  C125  1  0.74978664  0.86072188  0.66471979  1
  C  C126  1  0.72475747  0.84226785  0.58943870  1
  C  C127  1  0.66242342  0.61654682  0.45899264  1
  S  S128  1  0.13216332  0.39599082  0.63532858  1
  S  S129  1  0.39557097  0.87077287  0.63112648  1
  S  S130  1  0.59375837  0.34045721  0.36411627  1
  S  S131  1  0.63505941  0.60989663  0.36508368  1
  I  I132  1  0.26021699  0.94845976  0.00298741  1
  I  I133  1  0.25955459  0.57333479  0.00673340  1
  I  I134  1  0.75819060  0.06624224  0.98881906  1
  I  I135  1  0.76110247  0.46998873  0.02206598  1
  I  I136  1  0.03099998  0.24337947  0.98027968  1
  I  I137  1  0.93684143  0.74571305  0.99172242  1
  I  I138  1  0.42520657  0.24581773  0.00872939  1
  I  I139  1  0.54899933  0.74429269  0.00304568  1
  I  I140  1  0.03626803  0.99040297  0.83203047  1
  I  I141  1  0.02948415  0.99492747  0.19198786  1
  I  I142  1  0.99676429  0.49213172  0.82153628  1
  I  I143  1  0.02914663  0.43525412  0.17958140  1
  I  I144  1  0.51075941  0.97564981  0.81783942  1
  I  I145  1  0.52612629  0.98747395  0.17550413  1
  I  I146  1  0.55705381  0.48313526  0.81716682  1
  I  I147  1  0.50572491  0.49400343  0.17655416  1
  N  N148  1  0.25182000  0.21589691  0.85801619  1
  N  N149  1  0.22542828  0.22624908  0.15838231  1
  N  N150  1  0.22225913  0.75048562  0.85786064  1
  N  N151  1  0.23466920  0.77076194  0.15786171  1
  N  N152  1  0.78224713  0.24904685  0.14096449  1
  N  N153  1  0.77489141  0.28177281  0.84202432  1
  N  N154  1  0.74789601  0.77624125  0.13972863  1
  N  N155  1  0.72100107  0.76549592  0.84156467  1
