# generated using pymatgen
data_H16PbC14S2(I2N)2
_symmetry_space_group_name_H-M   'P 1'
_cell_length_a   12.63451128
_cell_length_b   12.39203547
_cell_length_c   18.45775790
_cell_angle_alpha   91.45314244
_cell_angle_beta   89.58652814
_cell_angle_gamma   90.35103165
_symmetry_Int_Tables_number   1
_chemical_formula_structural   H16PbC14S2(I2N)2
_chemical_formula_sum   'H64 Pb4 C56 S8 I16 N8'
_cell_volume   2888.82586260
_cell_formula_units_Z   4
loop_
 _symmetry_equiv_pos_site_id
 _symmetry_equiv_pos_as_xyz
  1  'x, y, z'
loop_
 _atom_site_type_symbol
 _atom_site_label
 _atom_site_symmetry_multiplicity
 _atom_site_fract_x
 _atom_site_fract_y
 _atom_site_fract_z
 _atom_site_occupancy
  H  H0  1  0.29456746  0.21788808  0.87851874  1
  H  H1  1  0.17246486  0.23238510  0.84610034  1
  H  H2  1  0.20522310  0.12455213  0.89682740  1
  H  H3  1  0.19489490  0.05549772  0.77741385  1
  H  H4  1  0.33127234  0.06308355  0.80444735  1
  H  H5  1  0.17866495  0.11149770  0.64327003  1
  H  H6  1  0.21999744  0.44106636  0.55214156  1
  H  H7  1  0.17983635  0.47744344  0.42355844  1
  H  H8  1  0.15828267  0.38522881  0.28330638  1
  H  H9  1  0.11549402  0.11711497  0.19248330  1
  H  H10  1  0.12084739  0.25845021  0.17847689  1
  H  H11  1  0.31435876  0.11732309  0.17094994  1
  H  H12  1  0.30271678  0.24593176  0.14712707  1
  H  H13  1  0.23727784  0.15155060  0.10164090  1
  H  H14  1  0.26074851  0.10166664  0.50125587  1
  H  H15  1  0.38444292  0.39326225  0.62374517  1
  H  H16  1  0.20848850  0.70082040  0.87496733  1
  H  H17  1  0.19951373  0.83038288  0.85250596  1
  H  H18  1  0.10109638  0.77041411  0.89740961  1
  H  H19  1  0.04609108  0.79169535  0.77566386  1
  H  H20  1  0.05673652  0.65296912  0.80018867  1
  H  H21  1  0.11395130  0.81718709  0.64462195  1
  H  H22  1  0.43993976  0.77246738  0.55172275  1
  H  H23  1  0.48259419  0.81311157  0.42388340  1
  H  H24  1  0.40012146  0.83334775  0.28360271  1
  H  H25  1  0.15027054  0.89578639  0.19671012  1
  H  H26  1  0.28608468  0.86856511  0.17781841  1
  H  H27  1  0.12357126  0.68962360  0.17684496  1
  H  H28  1  0.24137372  0.69423754  0.13638821  1
  H  H29  1  0.14459170  0.77062096  0.10738108  1
  H  H30  1  0.10792996  0.73903939  0.50081281  1
  H  H31  1  0.38465508  0.60218871  0.61856455  1
  H  H32  1  0.77783806  0.23795406  0.12616129  1
  H  H33  1  0.79536899  0.36528307  0.15856930  1
  H  H34  1  0.88533969  0.30656167  0.10452143  1
  H  H35  1  0.95131515  0.31035110  0.22551299  1
  H  H36  1  0.93119883  0.17622620  0.18916644  1
  H  H37  1  0.89546326  0.32029898  0.36088459  1
  H  H38  1  0.56954119  0.27227621  0.45283928  1
  H  H39  1  0.52873283  0.31378991  0.58193783  1
  H  H40  1  0.61356335  0.34753745  0.72080273  1
  H  H41  1  0.87295796  0.40126286  0.81149516  1
  H  H42  1  0.73232898  0.40032201  0.82388963  1
  H  H43  1  0.87122608  0.20609380  0.83328385  1
  H  H44  1  0.73979670  0.20952170  0.84662047  1
  H  H45  1  0.81919650  0.28287024  0.90222254  1
  H  H46  1  0.90212827  0.24275860  0.50074776  1
  H  H47  1  0.61582944  0.11308488  0.37712757  1
  H  H48  1  0.77883567  0.77436204  0.12628046  1
  H  H49  1  0.65358684  0.74517656  0.15058519  1
  H  H50  1  0.68217488  0.85504661  0.10200302  1
  H  H51  1  0.64744739  0.91376175  0.22428293  1
  H  H52  1  0.78058325  0.93923405  0.19738007  1
  H  H53  1  0.66181751  0.87354201  0.36219229  1
  H  H54  1  0.72982229  0.55687821  0.44971962  1
  H  H55  1  0.68460465  0.51927933  0.57794690  1
  H  H56  1  0.65135470  0.61121131  0.71697936  1
  H  H57  1  0.59101927  0.87448957  0.80531585  1
  H  H58  1  0.60734808  0.73357424  0.82106736  1
  H  H59  1  0.78096510  0.90004237  0.82942984  1
  H  H60  1  0.79093197  0.76984604  0.84896523  1
  H  H61  1  0.70937252  0.84593791  0.89853225  1
  H  H62  1  0.75982279  0.89766852  0.50033449  1
  H  H63  1  0.90132005  0.62230439  0.37439353  1
  Pb  Pb64  1  0.97271886  0.99678063  0.98250510  1
  Pb  Pb65  1  0.02913716  0.48781377  0.99353028  1
  Pb  Pb66  1  0.49938330  0.02673228  0.99421027  1
  Pb  Pb67  1  0.50033260  0.50765853  0.00012663  1
  C  C68  1  0.26160326  0.11019768  0.78926287  1
  C  C69  1  0.28303851  0.17962259  0.72595754  1
  C  C70  1  0.23823908  0.17190995  0.65805204  1
  C  C71  1  0.27426160  0.25449515  0.61096716  1
  C  C72  1  0.24336615  0.26945460  0.53487764  1
  C  C73  1  0.22023838  0.37517569  0.51187508  1
  C  C74  1  0.19710815  0.39566747  0.44035286  1
  C  C75  1  0.19678979  0.31007358  0.38871185  1
  C  C76  1  0.17814067  0.31273598  0.31258133  1
  C  C77  1  0.18612609  0.21338120  0.27884941  1
  C  C78  1  0.16378975  0.19045192  0.20100825  1
  C  C79  1  0.21867177  0.20385694  0.41196974  1
  C  C80  1  0.24144484  0.18300035  0.48450537  1
  C  C81  1  0.34472058  0.32357962  0.64617201  1
  C  C82  1  0.10156140  0.72641202  0.78692857  1
  C  C83  1  0.17533663  0.70848074  0.72469943  1
  C  C84  1  0.17177769  0.75598764  0.65789446  1
  C  C85  1  0.25313657  0.71852867  0.60952198  1
  C  C86  1  0.27176296  0.75187163  0.53423613  1
  C  C87  1  0.37704421  0.77385781  0.51162281  1
  C  C88  1  0.40108052  0.79722307  0.44043010  1
  C  C89  1  0.31977809  0.79893137  0.38884599  1
  C  C90  1  0.32702459  0.81580148  0.31277522  1
  C  C91  1  0.23127096  0.81019892  0.27887325  1
  C  C92  1  0.21331081  0.83581822  0.20186845  1
  C  C93  1  0.21361985  0.77990650  0.41196819  1
  C  C94  1  0.18912554  0.75665369  0.48411708  1
  C  C95  1  0.31704539  0.64393421  0.64246000  1
  C  C96  1  0.89155906  0.24932840  0.21058417  1
  C  C97  1  0.82214159  0.22634862  0.27365382  1
  C  C98  1  0.83340690  0.26371098  0.34417108  1
  C  C99  1  0.75345597  0.22343236  0.39170025  1
  C  C100  1  0.73781166  0.25330864  0.46881796  1
  C  C101  1  0.63278746  0.27418613  0.49270430  1
  C  C102  1  0.60988884  0.29876854  0.56447750  1
  C  C103  1  0.69216813  0.30413250  0.61533924  1
  C  C104  1  0.68622354  0.32841743  0.69113056  1
  C  C105  1  0.78273679  0.32760292  0.72420271  1
  C  C106  1  0.80013283  0.35427869  0.80224763  1
  C  C107  1  0.79796178  0.28493369  0.59134040  1
  C  C108  1  0.82115812  0.25963900  0.51844276  1
  C  C109  1  0.68381590  0.15530300  0.35491350  1
  C  C110  1  0.72376036  0.87577583  0.21190288  1
  C  C111  1  0.76073973  0.81222966  0.27388866  1
  C  C112  1  0.72498470  0.81937500  0.34443043  1
  C  C113  1  0.77600136  0.74541635  0.39069085  1
  C  C114  1  0.74867535  0.72900312  0.46742593  1
  C  C115  1  0.72759289  0.62252425  0.49009768  1
  C  C116  1  0.70156021  0.60139310  0.56131540  1
  C  C117  1  0.69634247  0.68724253  0.61246508  1
  C  C118  1  0.67204632  0.68408492  0.68795570  1
  C  C119  1  0.67365363  0.78392371  0.72129127  1
  C  C120  1  0.64474990  0.80560721  0.79824938  1
  C  C121  1  0.71673662  0.79433109  0.58954756  1
  C  C122  1  0.74259392  0.81569789  0.51737776  1
  C  C123  1  0.85044949  0.68419591  0.35319267  1
  S  S124  1  0.21552229  0.11162132  0.33929396  1
  S  S125  1  0.37039120  0.28691869  0.73260165  1
  S  S126  1  0.12683133  0.78595357  0.33937110  1
  S  S127  1  0.27749711  0.61685435  0.72866014  1
  S  S128  1  0.88591774  0.29756034  0.66329186  1
  S  S129  1  0.71456992  0.14070640  0.26516026  1
  S  S130  1  0.70474323  0.88694546  0.66150879  1
  S  S131  1  0.85952280  0.71738132  0.26413199  1
  I  I132  1  0.22719919  0.95989028  0.98482454  1
  I  I133  1  0.26887788  0.60548625  0.99570881  1
  I  I134  1  0.73408335  0.08123872  0.03348989  1
  I  I135  1  0.78041529  0.44598638  0.99472040  1
  I  I136  1  0.05166280  0.23868842  0.01983381  1
  I  I137  1  0.93305037  0.74085503  0.97026467  1
  I  I138  1  0.39737182  0.27343185  0.00287603  1
  I  I139  1  0.56282274  0.78248986  0.98541248  1
  I  I140  1  0.96097702  0.01561981  0.80462836  1
  I  I141  1  0.97590270  0.95901412  0.14772646  1
  I  I142  1  0.08792725  0.42077407  0.83051320  1
  I  I143  1  0.03343018  0.50745809  0.17123463  1
  I  I144  1  0.56866625  0.09331446  0.83404072  1
  I  I145  1  0.46664928  0.00401274  0.16929278  1
  I  I146  1  0.52534381  0.51090682  0.83190219  1
  I  I147  1  0.54746151  0.56766939  0.16763117  1
  N  N148  1  0.23094370  0.17542841  0.85620564  1
  N  N149  1  0.26008060  0.17555865  0.15342840  1
  N  N150  1  0.15737186  0.75924504  0.85599635  1
  N  N151  1  0.17889459  0.74209553  0.15375639  1
  N  N152  1  0.83281120  0.29317771  0.14708193  1
  N  N153  1  0.80896400  0.25624231  0.84871229  1
  N  N154  1  0.70871847  0.80837740  0.14397090  1
  N  N155  1  0.73829096  0.83279833  0.84587317  1
