# generated using pymatgen
data_H15PbC11SI4N3
_symmetry_space_group_name_H-M   'P 1'
_cell_length_a   12.36184238
_cell_length_b   12.35735817
_cell_length_c   16.56694275
_cell_angle_alpha   88.06821343
_cell_angle_beta   89.36370433
_cell_angle_gamma   89.87527977
_symmetry_Int_Tables_number   1
_chemical_formula_structural   H15PbC11SI4N3
_chemical_formula_sum   'H60 Pb4 C44 S4 I16 N12'
_cell_volume   2529.16303955
_cell_formula_units_Z   4
loop_
 _symmetry_equiv_pos_site_id
 _symmetry_equiv_pos_as_xyz
  1  'x, y, z'
loop_
 _atom_site_type_symbol
 _atom_site_label
 _atom_site_symmetry_multiplicity
 _atom_site_fract_x
 _atom_site_fract_y
 _atom_site_fract_z
 _atom_site_occupancy
  H  H0  1  0.19989647  0.15833676  0.82421320  1
  H  H1  1  0.15500044  0.28553239  0.81907605  1
  H  H2  1  0.23926540  0.24918870  0.89207936  1
  H  H3  1  0.38513333  0.22055256  0.79868332  1
  H  H4  1  0.33666943  0.35632763  0.79335581  1
  H  H5  1  0.33482922  0.08982363  0.69457320  1
  H  H6  1  0.29192334  0.06397499  0.55064769  1
  H  H7  1  0.24377942  0.36904833  0.37690355  1
  H  H8  1  0.11587514  0.25188840  0.18972499  1
  H  H9  1  0.17822526  0.37044594  0.22371676  1
  H  H10  1  0.27678111  0.30589296  0.11494202  1
  H  H11  1  0.35518558  0.28334425  0.19549916  1
  H  H12  1  0.28748185  0.17966372  0.15243738  1
  H  H13  1  0.21012638  0.40248447  0.52282437  1
  H  H14  1  0.25328274  0.42852589  0.66613013  1
  H  H15  1  0.16995732  0.81178291  0.81743883  1
  H  H16  1  0.30156336  0.84329123  0.81829531  1
  H  H17  1  0.25182366  0.76079830  0.89059770  1
  H  H18  1  0.22186566  0.61723883  0.80258868  1
  H  H19  1  0.35870552  0.66119590  0.79618145  1
  H  H20  1  0.09236821  0.66339502  0.69614341  1
  H  H21  1  0.06335270  0.70382338  0.55014240  1
  H  H22  1  0.36675768  0.77057391  0.37799331  1
  H  H23  1  0.24551959  0.89107138  0.18713573  1
  H  H24  1  0.36403828  0.82650120  0.22399624  1
  H  H25  1  0.30316630  0.72871194  0.11598500  1
  H  H26  1  0.26947386  0.65146195  0.19757959  1
  H  H27  1  0.17398637  0.72431550  0.14683245  1
  H  H28  1  0.39975513  0.78927593  0.52147534  1
  H  H29  1  0.42843493  0.74907639  0.66688684  1
  H  H30  1  0.82451140  0.31034593  0.17678935  1
  H  H31  1  0.69261811  0.34193371  0.17829468  1
  H  H32  1  0.73907855  0.25988052  0.10814489  1
  H  H33  1  0.77341268  0.11670501  0.20219436  1
  H  H34  1  0.63686460  0.16074736  0.21019936  1
  H  H35  1  0.90793322  0.16289850  0.30594045  1
  H  H36  1  0.93869286  0.20223982  0.44995829  1
  H  H37  1  0.63702049  0.25440264  0.62182898  1
  H  H38  1  0.75262221  0.38702963  0.80611848  1
  H  H39  1  0.63553380  0.32230519  0.77157297  1
  H  H40  1  0.69363574  0.22143185  0.88252331  1
  H  H41  1  0.73735669  0.14647504  0.80613924  1
  H  H42  1  0.82426528  0.22333541  0.85694507  1
  H  H43  1  0.60166408  0.28535255  0.47769191  1
  H  H44  1  0.57156225  0.24679070  0.33420197  1
  H  H45  1  0.69677269  0.83041608  0.17541079  1
  H  H46  1  0.66858087  0.69898950  0.18145766  1
  H  H47  1  0.75009543  0.74357269  0.10790103  1
  H  H48  1  0.88969017  0.78733672  0.19988344  1
  H  H49  1  0.85318142  0.64770430  0.20852198  1
  H  H50  1  0.83762851  0.91446926  0.30347903  1
  H  H51  1  0.79332081  0.94093341  0.44806572  1
  H  H52  1  0.74507731  0.63598770  0.62331340  1
  H  H53  1  0.61388517  0.75288191  0.81115701  1
  H  H54  1  0.67784539  0.63464058  0.77669234  1
  H  H55  1  0.77296070  0.69959547  0.88514561  1
  H  H56  1  0.85341625  0.71982993  0.80510359  1
  H  H57  1  0.78549871  0.82563997  0.84689425  1
  H  H58  1  0.71529357  0.60181146  0.47793538  1
  H  H59  1  0.76006225  0.57548886  0.33394920  1
  Pb  Pb60  1  0.00560542  0.99823424  0.98523019  1
  Pb  Pb61  1  -0.00324301  0.49776358  0.00750922  1
  Pb  Pb62  1  0.49910912  0.98632609  0.00725346  1
  Pb  Pb63  1  0.50248882  0.49163789  0.00697114  1
  C  C64  1  0.31771074  0.27261173  0.77874386  1
  C  C65  1  0.29477008  0.26024730  0.69069909  1
  C  C66  1  0.30650758  0.15817394  0.65705290  1
  C  C67  1  0.28340897  0.14351497  0.57644220  1
  C  C68  1  0.24804670  0.23076470  0.52680821  1
  C  C69  1  0.22122740  0.20912163  0.44237581  1
  C  C70  1  0.22254611  0.28374124  0.37479065  1
  C  C71  1  0.19467393  0.23336520  0.30477571  1
  C  C72  1  0.18645518  0.28231080  0.22166024  1
  C  C73  1  0.23824007  0.33363231  0.55989260  1
  C  C74  1  0.26134676  0.34813238  0.64121551  1
  C  C75  1  0.27528425  0.68313928  0.78079062  1
  C  C76  1  0.26170120  0.70544921  0.69176011  1
  C  C77  1  0.15944039  0.69213962  0.65786145  1
  C  C78  1  0.14298348  0.71377036  0.57630645  1
  C  C79  1  0.22866028  0.74961951  0.52580957  1
  C  C80  1  0.20482008  0.77424334  0.44020481  1
  C  C81  1  0.27956190  0.78187415  0.37404221  1
  C  C82  1  0.22669928  0.80487068  0.30241505  1
  C  C83  1  0.27577793  0.81881598  0.22032959  1
  C  C84  1  0.33182875  0.76128957  0.55922792  1
  C  C85  1  0.34804886  0.73935399  0.64153463  1
  C  C86  1  0.72077308  0.18243806  0.22241116  1
  C  C87  1  0.73800737  0.20429714  0.30995299  1
  C  C88  1  0.84113045  0.19114263  0.34344319  1
  C  C89  1  0.85858482  0.21249290  0.42400896  1
  C  C90  1  0.77316956  0.24758985  0.47352903  1
  C  C91  1  0.79657580  0.27416793  0.55762039  1
  C  C92  1  0.72255039  0.27492312  0.62433120  1
  C  C93  1  0.77364045  0.30410814  0.69418688  1
  C  C94  1  0.72370202  0.31495205  0.77582414  1
  C  C95  1  0.66935501  0.25837898  0.44056228  1
  C  C96  1  0.65225135  0.23703173  0.35951118  1
  C  C97  1  0.82667298  0.73038338  0.22106058  1
  C  C98  1  0.79983053  0.74379682  0.30874667  1
  C  C99  1  0.80932077  0.84634919  0.34168867  1
  C  C100  1  0.78517065  0.86137987  0.42247469  1
  C  C101  1  0.75052232  0.77402395  0.47279671  1
  C  C102  1  0.72323056  0.79583967  0.55759173  1
  C  C103  1  0.72370425  0.72142757  0.62536532  1
  C  C104  1  0.69521462  0.77213505  0.69568973  1
  C  C105  1  0.68544995  0.72287779  0.77879681  1
  C  C106  1  0.74215464  0.67088833  0.44016209  1
  C  C107  1  0.76650738  0.65600001  0.35871382  1
  S  S108  1  0.16779466  0.09970642  0.32896476  1
  S  S109  1  0.09065719  0.81552388  0.32329157  1
  S  S110  1  0.90746863  0.32876401  0.67089987  1
  S  S111  1  0.66923869  0.90599672  0.67145404  1
  I  I112  1  0.25693211  0.05380561  0.03208385  1
  I  I113  1  0.24926379  0.42577547  0.99508940  1
  I  I114  1  0.75496904  0.96062351  0.95612111  1
  I  I115  1  0.74553049  0.57557861  0.00631362  1
  I  I116  1  0.95378232  0.25021870  0.96662974  1
  I  I117  1  0.03936893  0.74567584  0.03597061  1
  I  I118  1  0.56863909  0.23996659  0.00166150  1
  I  I119  1  0.42047609  0.73778882  0.99989571  1
  I  I120  1  0.05136058  0.98923296  0.79193209  1
  I  I121  1  0.97812873  0.02357338  0.17074125  1
  I  I122  1  0.98201723  0.53929843  0.81670096  1
  I  I123  1  0.96101048  0.45654405  0.19859968  1
  I  I124  1  0.45693006  0.97982827  0.81779575  1
  I  I125  1  0.53876465  0.95627069  0.19807618  1
  I  I126  1  0.50543814  0.49727482  0.81883500  1
  I  I127  1  0.50047402  0.46940602  0.20727039  1
  N  N128  1  0.22205440  0.23858597  0.83170650  1
  N  N129  1  0.28372656  0.25998857  0.16923958  1
  N  N130  1  0.19403652  0.10759018  0.42499181  1
  N  N131  1  0.24646037  0.78016494  0.82952382  1
  N  N132  1  0.25335102  0.72414580  0.16809064  1
  N  N133  1  0.10105359  0.78977315  0.42010962  1
  N  N134  1  0.74683554  0.27952721  0.16806175  1
  N  N135  1  0.74651977  0.21993434  0.83254970  1
  N  N136  1  0.89834764  0.30098546  0.57554777  1
  N  N137  1  0.72998848  0.75321109  0.16814745  1
  N  N138  1  0.78113282  0.74495476  0.83082697  1
  N  N139  1  0.69594954  0.89757658  0.57517285  1
