# generated using pymatgen
data_H17PbC12I4N3
_symmetry_space_group_name_H-M   'P 1'
_cell_length_a   12.35426898
_cell_length_b   12.31310331
_cell_length_c   16.41821917
_cell_angle_alpha   88.87004846
_cell_angle_beta   88.93342150
_cell_angle_gamma   90.31985371
_symmetry_Int_Tables_number   1
_chemical_formula_structural   H17PbC12I4N3
_chemical_formula_sum   'H68 Pb4 C48 I16 N12'
_cell_volume   2496.56696294
_cell_formula_units_Z   4
loop_
 _symmetry_equiv_pos_site_id
 _symmetry_equiv_pos_as_xyz
  1  'x, y, z'
loop_
 _atom_site_type_symbol
 _atom_site_label
 _atom_site_symmetry_multiplicity
 _atom_site_fract_x
 _atom_site_fract_y
 _atom_site_fract_z
 _atom_site_occupancy
  H  H0  1  0.34316553  0.32881471  0.80890726  1
  H  H1  1  0.31933810  0.19539948  0.82126120  1
  H  H2  1  0.26616890  0.28664471  0.88739810  1
  H  H3  1  0.15302998  0.36700272  0.78818820  1
  H  H4  1  0.12489634  0.22606060  0.80028629  1
  H  H5  1  0.24416094  0.43963999  0.66081967  1
  H  H6  1  0.29027349  0.41170196  0.51579842  1
  H  H7  1  0.34995193  0.04651721  0.43887233  1
  H  H8  1  0.37881234  0.07440589  0.28743273  1
  H  H9  1  0.36655445  0.20796222  0.17457383  1
  H  H10  1  0.34794504  0.34608120  0.20050355  1
  H  H11  1  0.17710142  0.18460792  0.16181888  1
  H  H12  1  0.14897364  0.30659236  0.20254888  1
  H  H13  1  0.21188130  0.29959975  0.11217501  1
  H  H14  1  0.24942470  0.37261797  0.36535610  1
  H  H15  1  0.21645353  0.06996476  0.54677413  1
  H  H16  1  0.17531670  0.09756798  0.69238588  1
  H  H17  1  0.31991093  0.65146878  0.80641206  1
  H  H18  1  0.19594692  0.69447594  0.83752807  1
  H  H19  1  0.30718305  0.73285923  0.88596071  1
  H  H20  1  0.37091207  0.84674188  0.78279521  1
  H  H21  1  0.23164951  0.87653148  0.79682762  1
  H  H22  1  0.43749720  0.75246727  0.65967488  1
  H  H23  1  0.40688639  0.70744891  0.51594796  1
  H  H24  1  0.04096827  0.65690727  0.43940664  1
  H  H25  1  0.06979285  0.62867005  0.28898114  1
  H  H26  1  0.20510632  0.63204854  0.17838575  1
  H  H27  1  0.34299685  0.64563887  0.20512629  1
  H  H28  1  0.19539189  0.82767636  0.16057335  1
  H  H29  1  0.32158605  0.84406003  0.19406798  1
  H  H30  1  0.30129646  0.77973371  0.10775984  1
  H  H31  1  0.37108739  0.74859976  0.36641055  1
  H  H32  1  0.06848411  0.78548717  0.54707247  1
  H  H33  1  0.09916160  0.82748759  0.69118096  1
  H  H34  1  0.68397672  0.13982601  0.19601033  1
  H  H35  1  0.81584625  0.17076822  0.18632534  1
  H  H36  1  0.72762257  0.21421007  0.11613454  1
  H  H37  1  0.63468517  0.32964843  0.20801080  1
  H  H38  1  0.77405403  0.36545617  0.19820705  1
  H  H39  1  0.56189444  0.24964924  0.34020483  1
  H  H40  1  0.59129702  0.20524305  0.48546690  1
  H  H41  1  0.96327003  0.16638701  0.56191407  1
  H  H42  1  0.93730223  0.13374354  0.71313418  1
  H  H43  1  0.80267875  0.12954373  0.82559603  1
  H  H44  1  0.66316936  0.13195410  0.79956363  1
  H  H45  1  0.80278715  0.32931307  0.82138663  1
  H  H46  1  0.67254795  0.32941380  0.79482522  1
  H  H47  1  0.70416319  0.27864895  0.88589114  1
  H  H48  1  0.62774477  0.22894691  0.63436796  1
  H  H49  1  0.92993499  0.28656566  0.45372596  1
  H  H50  1  0.90085652  0.32666241  0.30791038  1
  H  H51  1  0.85399036  0.68155354  0.18806951  1
  H  H52  1  0.82825246  0.81616976  0.18421190  1
  H  H53  1  0.77857633  0.73165968  0.11358262  1
  H  H54  1  0.66676044  0.63552458  0.21187006  1
  H  H55  1  0.63310042  0.77552563  0.20349406  1
  H  H56  1  0.75053613  0.56244615  0.33956955  1
  H  H57  1  0.79440447  0.59038330  0.48393919  1
  H  H58  1  0.84864371  0.95875304  0.56052079  1
  H  H59  1  0.88221044  0.92855279  0.71045658  1
  H  H60  1  0.87424145  0.79333290  0.82296394  1
  H  H61  1  0.86575182  0.65456359  0.79423720  1
  H  H62  1  0.68483489  0.79862261  0.84158596  1
  H  H63  1  0.66438197  0.67881132  0.79528476  1
  H  H64  1  0.72494344  0.68269409  0.88556352  1
  H  H65  1  0.76001944  0.62692577  0.63444443  1
  H  H66  1  0.71838018  0.93075710  0.45606069  1
  H  H67  1  0.67822264  0.90309963  0.31131819  1
  Pb  Pb68  1  0.98349976  0.98830926  0.00941190  1
  Pb  Pb69  1  0.98526692  0.49768397  0.98960272  1
  Pb  Pb70  1  0.48932778  0.01530202  0.99387684  1
  Pb  Pb71  1  0.49183347  0.50053562  0.99553111  1
  C  C72  1  0.18426058  0.28567645  0.77604699  1
  C  C73  1  0.20817997  0.27022114  0.68712467  1
  C  C74  1  0.23899948  0.35810647  0.63603800  1
  C  C75  1  0.26421062  0.34247347  0.55396518  1
  C  C76  1  0.25849936  0.23826238  0.52035159  1
  C  C77  1  0.28673782  0.21806472  0.43497027  1
  C  C78  1  0.32711497  0.12000789  0.40612305  1
  C  C79  1  0.31073597  0.23201112  0.29739263  1
  C  C80  1  0.31545546  0.26345370  0.20990215  1
  C  C81  1  0.27799993  0.28927441  0.36561367  1
  C  C82  1  0.22492236  0.15097338  0.57179628  1
  C  C83  1  0.20107467  0.16651196  0.65377688  1
  C  C84  1  0.28873415  0.81599570  0.77345554  1
  C  C85  1  0.27002435  0.79091465  0.68590050  1
  C  C86  1  0.35614089  0.75871184  0.63514804  1
  C  C87  1  0.33902859  0.73414992  0.55389652  1
  C  C88  1  0.23500423  0.74169209  0.52060802  1
  C  C89  1  0.21456937  0.71517039  0.43568622  1
  C  C90  1  0.11576601  0.67755673  0.40694696  1
  C  C91  1  0.22977781  0.69086954  0.29884487  1
  C  C92  1  0.26243217  0.68207407  0.21197007  1
  C  C93  1  0.28697814  0.72214755  0.36673253  1
  C  C94  1  0.14929348  0.77575531  0.57179878  1
  C  C95  1  0.16638248  0.79949656  0.65304475  1
  C  C96  1  0.71690557  0.30435335  0.22350768  1
  C  C97  1  0.73044344  0.28689364  0.31328715  1
  C  C98  1  0.64330836  0.25561488  0.36467548  1
  C  C99  1  0.65981236  0.23151776  0.44689568  1
  C  C100  1  0.76384336  0.23877961  0.48011569  1
  C  C101  1  0.78566661  0.20983099  0.56505466  1
  C  C102  1  0.88693429  0.17909768  0.59391974  1
  C  C103  1  0.77241491  0.17891303  0.70186398  1
  C  C104  1  0.74181459  0.17259586  0.78951017  1
  C  C105  1  0.71314685  0.20826502  0.63393657  1
  C  C106  1  0.84965226  0.27520003  0.42862904  1
  C  C107  1  0.83343020  0.29800314  0.34668021  1
  C  C108  1  0.69385908  0.71793854  0.22581254  1
  C  C109  1  0.71439623  0.73165670  0.31475453  1
  C  C110  1  0.74494484  0.64377238  0.36474651  1
  C  C111  1  0.76902508  0.65950337  0.44640449  1
  C  C112  1  0.76273737  0.76350096  0.48044418  1
  C  C113  1  0.79173540  0.78395623  0.56484466  1
  C  C114  1  0.83015648  0.88310494  0.59293456  1
  C  C115  1  0.82056797  0.76821828  0.70091019  1
  C  C116  1  0.82799682  0.73478270  0.78761416  1
  C  C117  1  0.78702826  0.71109878  0.63366489  1
  C  C118  1  0.72815773  0.85028633  0.43034412  1
  C  C119  1  0.70511366  0.83473994  0.34894612  1
  I  I120  1  0.24040947  0.04058507  0.04113207  1
  I  I121  1  0.24316877  0.43600118  0.99631051  1
  I  I122  1  0.73719374  0.92792569  0.97873892  1
  I  I123  1  0.74219771  0.56863803  0.00771448  1
  I  I124  1  0.95655021  0.24227516  0.01636138  1
  I  I125  1  0.07592263  0.74100883  0.99375143  1
  I  I126  1  0.57978665  0.25656859  0.00752841  1
  I  I127  1  0.44405990  0.75587191  0.99223752  1
  I  I128  1  0.02685852  1.00059885  0.81701112  1
  I  I129  1  0.95015123  0.98470280  0.20442964  1
  I  I130  1  0.95127714  0.46220414  0.79928220  1
  I  I131  1  0.98178770  0.49997608  0.18941267  1
  I  I132  1  0.45963948  0.05493567  0.80440454  1
  I  I133  1  0.51880090  0.98918549  0.19175436  1
  I  I134  1  0.49260066  0.50494309  0.78855293  1
  I  I135  1  0.49423739  0.50189004  0.18307919  1
  N  N136  1  0.28424178  0.27228104  0.82650851  1
  N  N137  1  0.33991808  0.12933887  0.32373232  1
  N  N138  1  0.20539622  0.26280258  0.17002282  1
  N  N139  1  0.27588328  0.71654759  0.82855039  1
  N  N140  1  0.12604434  0.66439955  0.32510260  1
  N  N141  1  0.26952408  0.79065659  0.16641558  1
  N  N142  1  0.73847152  0.20073400  0.17807862  1
  N  N143  1  0.87758873  0.16185354  0.67592711  1
  N  N144  1  0.73018115  0.28457077  0.82514558  1
  N  N145  1  0.79525687  0.73909930  0.17486686  1
  N  N146  1  0.84593923  0.87248526  0.67462209  1
  N  N147  1  0.71757803  0.72365793  0.82921253  1
