# generated using pymatgen
data_H16PbC12S(I2N)2
_symmetry_space_group_name_H-M   'P 1'
_cell_length_a   13.62356818
_cell_length_b   13.15468297
_cell_length_c   14.14128565
_cell_angle_alpha   94.96791919
_cell_angle_beta   92.04321643
_cell_angle_gamma   90.60338124
_symmetry_Int_Tables_number   1
_chemical_formula_structural   H16PbC12S(I2N)2
_chemical_formula_sum   'H64 Pb4 C48 S4 I16 N8'
_cell_volume   2522.95059904
_cell_formula_units_Z   4
loop_
 _symmetry_equiv_pos_site_id
 _symmetry_equiv_pos_as_xyz
  1  'x, y, z'
loop_
 _atom_site_type_symbol
 _atom_site_label
 _atom_site_symmetry_multiplicity
 _atom_site_fract_x
 _atom_site_fract_y
 _atom_site_fract_z
 _atom_site_occupancy
  H  H0  1  0.24559907  0.20392256  0.80871046  1
  H  H1  1  0.34442834  0.22082413  0.88125502  1
  H  H2  1  0.30696491  0.31827324  0.82178116  1
  H  H3  1  0.45050570  0.24565189  0.75483387  1
  H  H4  1  0.39424775  0.12294842  0.74408467  1
  H  H5  1  0.25670228  0.08026734  0.62481274  1
  H  H6  1  0.17463490  0.11787514  0.47206316  1
  H  H7  1  0.07556771  0.38637083  0.47022100  1
  H  H8  1  0.10568521  0.28280536  0.15727989  1
  H  H9  1  0.24434332  0.12117491  0.21987114  1
  H  H10  1  0.32501582  0.17586104  0.31256501  1
  H  H11  1  0.36258853  0.31301006  0.20530337  1
  H  H12  1  0.39604065  0.19277511  0.16581379  1
  H  H13  1  0.29656428  0.24419576  0.11896274  1
  H  H14  1  0.32853371  0.40635595  0.48483667  1
  H  H15  1  0.41266464  0.36829474  0.63757201  1
  H  H16  1  0.20152343  0.74866534  0.82804449  1
  H  H17  1  0.22067399  0.64078984  0.87872455  1
  H  H18  1  0.30972067  0.68782101  0.81792048  1
  H  H19  1  0.22800608  0.54021667  0.73468008  1
  H  H20  1  0.11439327  0.60548582  0.74264641  1
  H  H21  1  0.08165317  0.75258210  0.64243438  1
  H  H22  1  0.12115202  0.83580819  0.49722341  1
  H  H23  1  0.39222442  0.91809419  0.49454764  1
  H  H24  1  0.29446558  0.90499270  0.18226665  1
  H  H25  1  0.12708325  0.77729759  0.21858777  1
  H  H26  1  0.15298509  0.69309556  0.30840480  1
  H  H27  1  0.28374617  0.61864385  0.21308605  1
  H  H28  1  0.17718156  0.61732143  0.14873715  1
  H  H29  1  0.26626461  0.70219937  0.13225298  1
  H  H30  1  0.38420133  0.65953399  0.46963851  1
  H  H31  1  0.34428530  0.57435544  0.61523707  1
  H  H32  1  0.79642102  0.24954459  0.18905968  1
  H  H33  1  0.78405303  0.14335654  0.11614142  1
  H  H34  1  0.68838400  0.18167148  0.17955673  1
  H  H35  1  0.76091481  0.03906960  0.24146464  1
  H  H36  1  0.87827844  0.10153247  0.25033593  1
  H  H37  1  0.91974133  0.23179461  0.37770365  1
  H  H38  1  0.88168480  0.31967189  0.53498791  1
  H  H39  1  0.61644501  0.43099622  0.56243897  1
  H  H40  1  0.73270542  0.38188448  0.85996204  1
  H  H41  1  0.88740881  0.24881930  0.77114176  1
  H  H42  1  0.83420114  0.16731861  0.67608795  1
  H  H43  1  0.71106496  0.11366928  0.78594932  1
  H  H44  1  0.82905109  0.09340069  0.82197599  1
  H  H45  1  0.76716830  0.19029294  0.87444547  1
  H  H46  1  0.59468477  0.17774983  0.51650415  1
  H  H47  1  0.63111533  0.09247384  0.35801482  1
  H  H48  1  0.74650706  0.78932086  0.18608673  1
  H  H49  1  0.84709635  0.79844605  0.12482630  1
  H  H50  1  0.82453342  0.68957537  0.17267582  1
  H  H51  1  0.94934144  0.77071961  0.26558107  1
  H  H52  1  0.88864911  0.88924551  0.26985890  1
  H  H53  1  0.75167709  0.92543835  0.37500371  1
  H  H54  1  0.66601049  0.88672521  0.51984100  1
  H  H55  1  0.54552996  0.64202116  0.52565050  1
  H  H56  1  0.60561332  0.74546621  0.83808502  1
  H  H57  1  0.75683368  0.88480518  0.77743265  1
  H  H58  1  0.82722275  0.82643817  0.68523222  1
  H  H59  1  0.86732682  0.68947016  0.78689357  1
  H  H60  1  0.89945119  0.80664848  0.83820208  1
  H  H61  1  0.80043804  0.74604782  0.87336704  1
  H  H62  1  0.81309609  0.59855170  0.51853350  1
  H  H63  1  0.89764289  0.63592234  0.37182882  1
  Pb  Pb64  1  0.01929236  0.00169770  0.99542739  1
  Pb  Pb65  1  0.95679047  0.48696436  0.96172928  1
  Pb  Pb66  1  0.49943556  0.01224198  0.95460808  1
  Pb  Pb67  1  0.50324338  0.53377299  0.03297785  1
  C  C68  1  0.38096398  0.20421023  0.73804753  1
  C  C69  1  0.33776477  0.22351165  0.64247354  1
  C  C70  1  0.27275219  0.15188868  0.59431037  1
  C  C71  1  0.22696698  0.17251626  0.50857748  1
  C  C72  1  0.24482877  0.26559824  0.47018198  1
  C  C73  1  0.18341571  0.29371494  0.38829982  1
  C  C74  1  0.10076998  0.35187607  0.40291514  1
  C  C75  1  0.11921665  0.29668404  0.23355638  1
  C  C76  1  0.19451042  0.26188628  0.28988311  1
  C  C77  1  0.27473473  0.19353499  0.25423673  1
  C  C78  1  0.31359317  0.33494283  0.51595782  1
  C  C79  1  0.35999918  0.31380286  0.60130921  1
  C  C80  1  0.19332954  0.61473858  0.73171647  1
  C  C81  1  0.21279751  0.66070490  0.64065484  1
  C  C82  1  0.14835763  0.73191431  0.60510702  1
  C  C83  1  0.16999952  0.77828417  0.52312027  1
  C  C84  1  0.25686465  0.75503578  0.47570063  1
  C  C85  1  0.29019660  0.81885878  0.40129796  1
  C  C86  1  0.35699101  0.89715140  0.42540589  1
  C  C87  1  0.30470979  0.88915787  0.25619261  1
  C  C88  1  0.25969933  0.81421479  0.30292664  1
  C  C89  1  0.18603186  0.73901410  0.25639885  1
  C  C90  1  0.31797265  0.67919626  0.50795944  1
  C  C91  1  0.29584201  0.63229837  0.58939982  1
  C  C92  1  0.79909110  0.11242134  0.25898684  1
  C  C93  1  0.77692918  0.15897807  0.35623498  1
  C  C94  1  0.84811917  0.22077795  0.40767173  1
  C  C95  1  0.82735836  0.26899219  0.49605457  1
  C  C96  1  0.73509999  0.25575985  0.53475842  1
  C  C97  1  0.71064880  0.31543117  0.62381413  1
  C  C98  1  0.65230150  0.40065410  0.62365222  1
  C  C99  1  0.71595441  0.37328777  0.78402703  1
  C  C100  1  0.74784704  0.29947616  0.71709891  1
  C  C101  1  0.81754369  0.21717078  0.73945791  1
  C  C102  1  0.66541218  0.19025876  0.48518212  1
  C  C103  1  0.68621924  0.14232635  0.39664678  1
  C  C104  1  0.87765354  0.80701505  0.27316163  1
  C  C105  1  0.82878724  0.78224934  0.36213146  1
  C  C106  1  0.76440851  0.85292860  0.40528239  1
  C  C107  1  0.71660609  0.83180579  0.48683453  1
  C  C108  1  0.73196308  0.73915689  0.52729911  1
  C  C109  1  0.67080997  0.71715948  0.60826975  1
  C  C110  1  0.57872156  0.67291345  0.59312844  1
  C  C111  1  0.61246367  0.72859457  0.76203034  1
  C  C112  1  0.69027695  0.74968162  0.70652210  1
  C  C113  1  0.77876713  0.81099592  0.74266316  1
  C  C114  1  0.79894408  0.66969185  0.48622998  1
  C  C115  1  0.84671063  0.69104667  0.40420070  1
  S  S116  1  0.03777181  0.36760679  0.29897510  1
  S  S117  1  0.38308420  0.96290159  0.33061554  1
  S  S118  1  0.64441542  0.46087375  0.73473146  1
  S  S119  1  0.51699458  0.67198048  0.69620278  1
  I  I120  1  0.27282811  0.05011364  0.97961127  1
  I  I121  1  0.17884175  0.46742307  0.97939318  1
  I  I122  1  0.78890337  0.95841337  0.00889016  1
  I  I123  1  0.71805959  0.59786158  0.99058347  1
  I  I124  1  0.92332498  0.25951848  0.00644434  1
  I  I125  1  0.05478235  0.77054317  0.98424822  1
  I  I126  1  0.54001135  0.24305598  0.96664606  1
  I  I127  1  0.41749330  0.74805329  0.02189915  1
  I  I128  1  0.99389762  0.99059297  0.76581428  1
  I  I129  1  0.05644637  0.01009717  0.21680319  1
  I  I130  1  0.93485564  0.52222643  0.73399447  1
  I  I131  1  0.96722385  0.56543503  0.17462085  1
  I  I132  1  0.56693589  0.00244029  0.73442062  1
  I  I133  1  0.53979362  0.04936628  0.17181668  1
  I  I134  1  0.40953456  0.48241508  0.83495380  1
  I  I135  1  0.42156580  0.49393951  0.24718758  1
  N  N136  1  0.31353491  0.23899069  0.81680564  1
  N  N137  1  0.33635640  0.23940673  0.18168096  1
  N  N138  1  0.23445864  0.67845674  0.81866839  1
  N  N139  1  0.23080769  0.66488115  0.18343037  1
  N  N140  1  0.76475539  0.17784379  0.18175721  1
  N  N141  1  0.77779061  0.14950710  0.80999355  1
  N  N142  1  0.81904987  0.76895102  0.18411007  1
  N  N143  1  0.84000860  0.76014700  0.81472170  1
