# generated using pymatgen
data_H15PbC12SI4N2F
_symmetry_space_group_name_H-M   'P 1'
_cell_length_a   12.43794125
_cell_length_b   12.20364975
_cell_length_c   16.51664459
_cell_angle_alpha   89.01797876
_cell_angle_beta   89.74157120
_cell_angle_gamma   89.40521562
_symmetry_Int_Tables_number   1
_chemical_formula_structural   H15PbC12SI4N2F
_chemical_formula_sum   'H60 Pb4 C48 S4 I16 N8 F4'
_cell_volume   2506.50622505
_cell_formula_units_Z   4
loop_
 _symmetry_equiv_pos_site_id
 _symmetry_equiv_pos_as_xyz
  1  'x, y, z'
loop_
 _atom_site_type_symbol
 _atom_site_label
 _atom_site_symmetry_multiplicity
 _atom_site_fract_x
 _atom_site_fract_y
 _atom_site_fract_z
 _atom_site_occupancy
  H  H0  1  0.29400618  0.37681306  0.81047556  1
  H  H1  1  0.32544297  0.24374062  0.82849761  1
  H  H2  1  0.24125404  0.31072970  0.89092636  1
  H  H3  1  0.10515417  0.32936855  0.79364284  1
  H  H4  1  0.14185341  0.18918792  0.80949969  1
  H  H5  1  0.22837109  0.08367491  0.70470591  1
  H  H6  1  0.25781589  0.05966022  0.55817527  1
  H  H7  1  0.16499071  0.03715374  0.43527220  1
  H  H8  1  0.35750306  0.36098672  0.23972791  1
  H  H9  1  0.36813321  0.23212493  0.19255588  1
  H  H10  1  0.16708442  0.37051434  0.18989503  1
  H  H11  1  0.26310184  0.36965560  0.11852572  1
  H  H12  1  0.19160312  0.25863745  0.13578967  1
  H  H13  1  0.29549061  0.36310779  0.38788773  1
  H  H14  1  0.15711725  0.42700189  0.66114416  1
  H  H15  1  0.37072717  0.68441797  0.81030533  1
  H  H16  1  0.23891331  0.66845495  0.82948774  1
  H  H17  1  0.31463085  0.74308448  0.89143835  1
  H  H18  1  0.33937741  0.88606151  0.79515230  1
  H  H19  1  0.20055498  0.85974004  0.81029492  1
  H  H20  1  0.09259816  0.77316208  0.70486439  1
  H  H21  1  0.06778722  0.74600931  0.55830613  1
  H  H22  1  0.04367861  0.84068717  0.43305944  1
  H  H23  1  0.35646045  0.62987929  0.24569675  1
  H  H24  1  0.23170224  0.63235767  0.19446260  1
  H  H25  1  0.38138475  0.82391911  0.19361622  1
  H  H26  1  0.37893817  0.72378922  0.12510817  1
  H  H27  1  0.27451470  0.80717471  0.13440185  1
  H  H28  1  0.36444867  0.70351214  0.39065587  1
  H  H29  1  0.42805714  0.84325558  0.66162966  1
  H  H30  1  0.63599226  0.16838509  0.19405924  1
  H  H31  1  0.76819210  0.14839882  0.17833782  1
  H  H32  1  0.69447660  0.21888245  0.11080762  1
  H  H33  1  0.66514499  0.36936661  0.19893747  1
  H  H34  1  0.80490337  0.34221244  0.18660597  1
  H  H35  1  0.91127862  0.25799417  0.29575636  1
  H  H36  1  0.93582339  0.23789428  0.44350217  1
  H  H37  1  0.95801941  0.33515646  0.56376881  1
  H  H38  1  0.65159872  0.12197589  0.75895450  1
  H  H39  1  0.77935552  0.12119243  0.80716381  1
  H  H40  1  0.62497672  0.31162450  0.80570835  1
  H  H41  1  0.64016731  0.21488745  0.87929961  1
  H  H42  1  0.73866777  0.30103751  0.85917834  1
  H  H43  1  0.63986410  0.19942463  0.61150439  1
  H  H44  1  0.57531168  0.33580679  0.33476258  1
  H  H45  1  0.82201589  0.62559819  0.20059129  1
  H  H46  1  0.83845605  0.75554327  0.17079024  1
  H  H47  1  0.76667362  0.67342348  0.11506282  1
  H  H48  1  0.62199862  0.66690518  0.20566088  1
  H  H49  1  0.65714679  0.80694123  0.18984697  1
  H  H50  1  0.74169544  0.91114263  0.29673420  1
  H  H51  1  0.76509714  0.93437888  0.44388042  1
  H  H52  1  0.66625646  0.95764290  0.56669256  1
  H  H53  1  0.86959026  0.63440771  0.76123880  1
  H  H54  1  0.87882698  0.76453824  0.80678649  1
  H  H55  1  0.68129807  0.62554231  0.81226153  1
  H  H56  1  0.77371355  0.63751557  0.88594250  1
  H  H57  1  0.69814849  0.74358571  0.85988574  1
  H  H58  1  0.80245131  0.63119783  0.61247458  1
  H  H59  1  0.66016043  0.57123083  0.33994179  1
  Pb  Pb60  1  -0.00556604  1.00057462  0.00241765  1
  Pb  Pb61  1  0.01978090  0.51416781  0.00040517  1
  Pb  Pb62  1  0.48921899  0.00989307  -0.00020673  1
  Pb  Pb63  1  0.51605415  0.49356391  0.98418552  1
  C  C64  1  0.16773289  0.26744493  0.78261689  1
  C  C65  1  0.19109301  0.25625134  0.69388307  1
  C  C66  1  0.21921224  0.15343935  0.66326917  1
  C  C67  1  0.23432051  0.13992500  0.58070270  1
  C  C68  1  0.22032477  0.22709682  0.52459357  1
  C  C69  1  0.22802269  0.20711372  0.43721253  1
  C  C70  1  0.19895271  0.10788538  0.40414834  1
  C  C71  1  0.26890463  0.23565600  0.30009739  1
  C  C72  1  0.31288924  0.28691438  0.22515216  1
  C  C73  1  0.26722101  0.28078284  0.37609999  1
  C  C74  1  0.19496046  0.32946435  0.55766307  1
  C  C75  1  0.18010309  0.34567593  0.64000425  1
  C  C76  1  0.27520510  0.82737943  0.78357533  1
  C  C77  1  0.26175068  0.80845463  0.69454668  1
  C  C78  1  0.16056030  0.78236141  0.66361242  1
  C  C79  1  0.14649353  0.76879872  0.58102014  1
  C  C80  1  0.23128091  0.78262206  0.52500779  1
  C  C81  1  0.21116564  0.77487340  0.43751952  1
  C  C82  1  0.11337478  0.80531670  0.40303776  1
  C  C83  1  0.23886325  0.73131492  0.30142082  1
  C  C84  1  0.28828258  0.68268504  0.22827281  1
  C  C85  1  0.28344012  0.73335984  0.37773095  1
  C  C86  1  0.33177308  0.80721021  0.55825659  1
  C  C87  1  0.34835013  0.82059541  0.64066324  1
  C  C88  1  0.73033389  0.31151020  0.21411285  1
  C  C89  1  0.74229995  0.29751456  0.30413558  1
  C  C90  1  0.84334503  0.27091466  0.33641738  1
  C  C91  1  0.85705677  0.26062338  0.41956474  1
  C  C92  1  0.77170676  0.27759561  0.47445737  1
  C  C93  1  0.79181365  0.27010939  0.56208122  1
  C  C94  1  0.88971291  0.29912079  0.59501017  1
  C  C95  1  0.76768644  0.22160466  0.69863163  1
  C  C96  1  0.72117283  0.17250896  0.77340895  1
  C  C97  1  0.72122899  0.22717092  0.62297068  1
  C  C98  1  0.67128689  0.30267042  0.44007381  1
  C  C99  1  0.65515663  0.31327718  0.35701668  1
  C  C100  1  0.68245103  0.72904443  0.21834325  1
  C  C101  1  0.69936143  0.74055429  0.30755951  1
  C  C102  1  0.72836827  0.84222312  0.33827237  1
  C  C103  1  0.74096286  0.85508931  0.42101716  1
  C  C104  1  0.72402212  0.76832627  0.47680333  1
  C  C105  1  0.73229397  0.78786473  0.56419884  1
  C  C106  1  0.70284343  0.88743562  0.59750681  1
  C  C107  1  0.77881820  0.75982512  0.70028386  1
  C  C108  1  0.82425592  0.70930378  0.77519820  1
  C  C109  1  0.77447804  0.71418964  0.62456685  1
  C  C110  1  0.69705054  0.66705069  0.44371916  1
  C  C111  1  0.68404273  0.65163027  0.36117251  1
  S  S112  1  0.22106976  0.10336784  0.30255515  1
  S  S113  1  0.10901126  0.78223254  0.30173782  1
  S  S114  1  0.89714009  0.27103539  0.69609138  1
  S  S115  1  0.72955961  0.89274856  0.69835109  1
  I  I116  1  0.23850479  0.91721019  0.00461520  1
  I  I117  1  0.26560781  0.56027223  0.01679368  1
  I  I118  1  0.73326022  0.06792352  0.98627635  1
  I  I119  1  0.76580623  0.43365900  0.98826229  1
  I  I120  1  0.07112108  0.25442009  0.99617492  1
  I  I121  1  0.91176420  0.75247099  0.99630819  1
  I  I122  1  0.42411362  0.25667188  0.01393798  1
  I  I123  1  0.54974505  0.75243262  0.98380946  1
  I  I124  1  0.99362302  0.99326815  0.81368455  1
  I  I125  1  0.92286428  0.01239990  0.19548044  1
  I  I126  1  0.07677869  0.55363104  0.81107986  1
  I  I127  1  0.00341751  0.50132560  0.19760844  1
  I  I128  1  0.44868470  0.07534245  0.80993364  1
  I  I129  1  0.49783350  0.00133642  0.19692028  1
  I  I130  1  0.51009866  0.50152460  0.78316449  1
  I  I131  1  0.50706676  0.50208578  0.17407114  1
  N  N132  1  0.26380964  0.30277314  0.83068837  1
  N  N133  1  0.22848616  0.32281019  0.16465200  1
  N  N134  1  0.30247891  0.72434889  0.83125023  1
  N  N135  1  0.33303186  0.76456706  0.16782084  1
  N  N136  1  0.70515521  0.20623817  0.17241554  1
  N  N137  1  0.67873814  0.25618187  0.83217891  1
  N  N138  1  0.78296056  0.69311539  0.17445137  1
  N  N139  1  0.73903681  0.67701104  0.83625003  1
  F  F140  1  0.17918671  0.41794817  0.50656182  1
  F  F141  1  0.41786972  0.82245697  0.50747175  1
  F  F142  1  0.58495414  0.32025234  0.48996403  1
  F  F143  1  0.67953457  0.57943721  0.49466795  1
