# generated using pymatgen
data_H16PbC12I4N2O
_symmetry_space_group_name_H-M   'P 1'
_cell_length_a   12.47997503
_cell_length_b   12.37366441
_cell_length_c   16.32496591
_cell_angle_alpha   89.46292776
_cell_angle_beta   89.91790072
_cell_angle_gamma   88.68831031
_symmetry_Int_Tables_number   1
_chemical_formula_structural   H16PbC12I4N2O
_chemical_formula_sum   'H64 Pb4 C48 I16 N8 O4'
_cell_volume   2520.17739900
_cell_formula_units_Z   4
loop_
 _symmetry_equiv_pos_site_id
 _symmetry_equiv_pos_as_xyz
  1  'x, y, z'
loop_
 _atom_site_type_symbol
 _atom_site_label
 _atom_site_symmetry_multiplicity
 _atom_site_fract_x
 _atom_site_fract_y
 _atom_site_fract_z
 _atom_site_occupancy
  H  H0  1  0.33175858  0.17552716  0.81002526  1
  H  H1  1  0.33443633  0.31077506  0.81835902  1
  H  H2  1  0.28311173  0.23604689  0.89313131  1
  H  H3  1  0.13126233  0.18686913  0.81196935  1
  H  H4  1  0.14301628  0.33111730  0.81210992  1
  H  H5  1  0.21849150  0.42706458  0.69203192  1
  H  H6  1  0.24750157  0.42901115  0.54248472  1
  H  H7  1  0.18929529  0.43528645  0.40125661  1
  H  H8  1  0.27434057  0.09772687  0.21529190  1
  H  H9  1  0.38635752  0.18268622  0.21599421  1
  H  H10  1  0.27833173  0.22426270  0.10250462  1
  H  H11  1  0.16793975  0.25090873  0.15949192  1
  H  H12  1  0.27504697  0.33031567  0.16504072  1
  H  H13  1  0.28225260  0.09315562  0.39999027  1
  H  H14  1  0.18929876  0.08621283  0.53491471  1
  H  H15  1  0.16583991  0.08388773  0.68526614  1
  H  H16  1  0.16623523  0.67666639  0.81587471  1
  H  H17  1  0.29880039  0.64939722  0.81905103  1
  H  H18  1  0.23932446  0.71666111  0.89493393  1
  H  H19  1  0.19964123  0.87236386  0.81017076  1
  H  H20  1  0.33999880  0.84150100  0.81128038  1
  H  H21  1  0.43178964  0.77510918  0.69012082  1
  H  H22  1  0.43290052  0.75118504  0.54031784  1
  H  H23  1  0.43550087  0.80818014  0.39870615  1
  H  H24  1  0.09876789  0.72720510  0.21491557  1
  H  H25  1  0.18650436  0.61293789  0.21963809  1
  H  H26  1  0.22771796  0.70311659  0.10180941  1
  H  H27  1  0.23847480  0.82640868  0.14404350  1
  H  H28  1  0.32849114  0.72624550  0.16472256  1
  H  H29  1  0.09817173  0.72305392  0.39830011  1
  H  H30  1  0.09085975  0.81183120  0.53425570  1
  H  H31  1  0.08991719  0.83092072  0.68487528  1
  H  H32  1  0.83342833  0.17638317  0.19061500  1
  H  H33  1  0.70315838  0.16562767  0.16928466  1
  H  H34  1  0.78605592  0.23291360  0.10521043  1
  H  H35  1  0.80447856  0.38047756  0.19086602  1
  H  H36  1  0.66451419  0.35329825  0.18750040  1
  H  H37  1  0.57220261  0.28232958  0.30804285  1
  H  H38  1  0.57088626  0.25387291  0.45799540  1
  H  H39  1  0.56596714  0.31142059  0.59942466  1
  H  H40  1  0.90351233  0.23097097  0.78606850  1
  H  H41  1  0.82005740  0.11777707  0.78742054  1
  H  H42  1  0.78562512  0.23144244  0.89985263  1
  H  H43  1  0.74930203  0.33786828  0.84212301  1
  H  H44  1  0.67549158  0.22579725  0.84048811  1
  H  H45  1  0.90582804  0.22021667  0.60221254  1
  H  H46  1  0.91102989  0.30935575  0.46567419  1
  H  H47  1  0.91228967  0.33305780  0.31521462  1
  H  H48  1  0.81247221  0.83489051  0.18357706  1
  H  H49  1  0.83114525  0.70069936  0.17429359  1
  H  H50  1  0.76315119  0.77062072  0.10337787  1
  H  H51  1  0.61712909  0.81064316  0.19317738  1
  H  H52  1  0.64135476  0.66770603  0.18963852  1
  H  H53  1  0.71883819  0.56924706  0.30891715  1
  H  H54  1  0.74845048  0.56505596  0.45792312  1
  H  H55  1  0.69088869  0.56214381  0.60208205  1
  H  H56  1  0.77357607  0.90304349  0.78210515  1
  H  H57  1  0.88508074  0.81155302  0.78274541  1
  H  H58  1  0.77535455  0.79065210  0.89953330  1
  H  H59  1  0.66836723  0.75655034  0.84555579  1
  H  H60  1  0.77817710  0.67586589  0.84588878  1
  H  H61  1  0.77845413  0.90143097  0.60059908  1
  H  H62  1  0.68894564  0.91033357  0.46706956  1
  H  H63  1  0.66478925  0.91467530  0.31705713  1
  Pb  Pb64  1  0.00542289  0.99974832  0.01536081  1
  Pb  Pb65  1  -0.00876503  0.50430636  0.99262094  1
  Pb  Pb66  1  0.50833054  0.00824449  0.99192584  1
  Pb  Pb67  1  0.48856012  0.50335346  0.99835773  1
  C  C68  1  0.17911177  0.25482438  0.79020398  1
  C  C69  1  0.19037022  0.25540341  0.69868493  1
  C  C70  1  0.21224454  0.35238228  0.65751775  1
  C  C71  1  0.22735581  0.35352754  0.57327319  1
  C  C72  1  0.21875394  0.25825533  0.52744353  1
  C  C73  1  0.23183356  0.26281569  0.43842439  1
  C  C74  1  0.21659098  0.35305202  0.38980581  1
  C  C75  1  0.26547356  0.22110920  0.30704134  1
  C  C76  1  0.29892924  0.18112443  0.22536220  1
  C  C77  1  0.26263876  0.17658709  0.38373555  1
  C  C78  1  0.19680203  0.16116898  0.56897615  1
  C  C79  1  0.18329122  0.15974236  0.65377968  1
  C  C80  1  0.26193538  0.81463516  0.78946616  1
  C  C81  1  0.26083749  0.80342602  0.69796585  1
  C  C82  1  0.35690629  0.78242861  0.65594033  1
  C  C83  1  0.35758053  0.77041893  0.57144562  1
  C  C84  1  0.26221469  0.78097971  0.52580801  1
  C  C85  1  0.26566210  0.76994845  0.43650940  1
  C  C86  1  0.35405899  0.78364940  0.38751743  1
  C  C87  1  0.22308709  0.73809873  0.30505843  1
  C  C88  1  0.18249921  0.70158738  0.22466259  1
  C  C89  1  0.18013570  0.74141813  0.38194679  1
  C  C90  1  0.16589151  0.80234747  0.56811917  1
  C  C91  1  0.16521963  0.81312856  0.65310747  1
  C  C92  1  0.74281520  0.32336037  0.20981454  1
  C  C93  1  0.74243381  0.30812044  0.30121871  1
  C  C94  1  0.64660755  0.28717980  0.34264302  1
  C  C95  1  0.64582179  0.27276479  0.42715183  1
  C  C96  1  0.74053022  0.28085353  0.47327077  1
  C  C97  1  0.73687439  0.26919355  0.56265601  1
  C  C98  1  0.64791288  0.28503233  0.61118717  1
  C  C99  1  0.77973065  0.23819404  0.69476672  1
  C  C100  1  0.82077603  0.20579226  0.77693343  1
  C  C101  1  0.82310612  0.23971049  0.61796989  1
  C  C102  1  0.83654814  0.30166712  0.43147257  1
  C  C103  1  0.83743684  0.31483070  0.34655572  1
  C  C104  1  0.67238713  0.74453369  0.21159150  1
  C  C105  1  0.68980528  0.74232456  0.30258601  1
  C  C106  1  0.71289381  0.64431343  0.34337057  1
  C  C107  1  0.72823435  0.64185573  0.42772273  1
  C  C108  1  0.71900125  0.73700932  0.47415108  1
  C  C109  1  0.73123605  0.73262054  0.56335352  1
  C  C110  1  0.71680521  0.64373058  0.61296250  1
  C  C111  1  0.76253332  0.77570985  0.69466647  1
  C  C112  1  0.79756844  0.81779830  0.77488751  1
  C  C113  1  0.75979923  0.81883132  0.61748646  1
  C  C114  1  0.69684996  0.83525657  0.43277530  1
  C  C115  1  0.68290789  0.83787440  0.34810807  1
  I  I116  1  0.25300677  0.99354435  0.04413199  1
  I  I117  1  0.23651401  0.53232907  0.01008712  1
  I  I118  1  0.75367523  1.00049498  0.96834841  1
  I  I119  1  0.73815868  0.50498966  0.96967846  1
  I  I120  1  0.96610311  0.25114308  0.99786727  1
  I  I121  1  0.97315006  0.75319911  0.01016396  1
  I  I122  1  0.44931201  0.25541659  0.00464975  1
  I  I123  1  0.49449458  0.75672784  0.98807852  1
  I  I124  1  0.02430123  0.99450186  0.82153816  1
  I  I125  1  0.95912583  -0.00157053  0.21159648  1
  I  I126  1  0.00105920  0.54884141  0.79674574  1
  I  I127  1  0.97629041  0.50709478  0.18979949  1
  I  I128  1  0.50271050  0.04250866  0.79622825  1
  I  I129  1  0.55868368  0.03506865  0.18560637  1
  I  I130  1  0.44172745  0.49172456  0.79934847  1
  I  I131  1  0.45860878  0.49799969  0.19368787  1
  N  N132  1  0.28771652  0.24308350  0.83012972  1
  N  N133  1  0.25047802  0.25124700  0.15897612  1
  N  N134  1  0.24009286  0.70860236  0.83210797  1
  N  N135  1  0.24808589  0.74371965  0.15508493  1
  N  N136  1  0.76770328  0.21877558  0.16604761  1
  N  N137  1  0.75277957  0.25418579  0.84366632  1
  N  N138  1  0.77588356  0.76389149  0.16566129  1
  N  N139  1  0.75112075  0.75576861  0.84523803  1
  O  O140  1  0.23736164  0.32919266  0.30969460  1
  O  O141  1  0.32959837  0.76398554  0.30737514  1
  O  O142  1  0.67254283  0.26584298  0.69165544  1
  O  O143  1  0.73618407  0.66842643  0.69303042  1
