# generated using pymatgen
data_H15PbC11SI4N3
_symmetry_space_group_name_H-M   'P 1'
_cell_length_a   12.55064253
_cell_length_b   12.41832107
_cell_length_c   16.32062992
_cell_angle_alpha   90.42675736
_cell_angle_beta   89.44401058
_cell_angle_gamma   91.41007902
_symmetry_Int_Tables_number   1
_chemical_formula_structural   H15PbC11SI4N3
_chemical_formula_sum   'H60 Pb4 C44 S4 I16 N12'
_cell_volume   2542.74309948
_cell_formula_units_Z   4
loop_
 _symmetry_equiv_pos_site_id
 _symmetry_equiv_pos_as_xyz
  1  'x, y, z'
loop_
 _atom_site_type_symbol
 _atom_site_label
 _atom_site_symmetry_multiplicity
 _atom_site_fract_x
 _atom_site_fract_y
 _atom_site_fract_z
 _atom_site_occupancy
  H  H0  1  0.13065140  0.34144158  0.80734162  1
  H  H1  1  0.20186800  0.31028966  0.88787890  1
  H  H2  1  0.15921025  0.21116253  0.82489631  1
  H  H3  1  0.35117473  0.25595179  0.80833121  1
  H  H4  1  0.31601902  0.38991333  0.78546733  1
  H  H5  1  0.28156225  0.10199907  0.71278871  1
  H  H6  1  0.26376639  0.05361745  0.56624947  1
  H  H7  1  0.26261848  0.01591026  0.43724460  1
  H  H8  1  0.12431741  0.24789113  0.19208142  1
  H  H9  1  0.17593578  0.36876564  0.23634315  1
  H  H10  1  0.26625776  0.33460590  0.11186138  1
  H  H11  1  0.35411712  0.31567895  0.18571431  1
  H  H12  1  0.29644959  0.20803486  0.13706921  1
  H  H13  1  0.22853621  0.35900111  0.38974469  1
  H  H14  1  0.27788853  0.43662908  0.64321680  1
  H  H15  1  0.34423413  0.86559560  0.80458994  1
  H  H16  1  0.30318794  0.79598874  0.88541605  1
  H  H17  1  0.21336715  0.84300731  0.81767513  1
  H  H18  1  0.24678664  0.64321580  0.80876677  1
  H  H19  1  0.38188400  0.67763222  0.78554060  1
  H  H20  1  0.10051282  0.71481154  0.71354823  1
  H  H21  1  0.05510710  0.73403352  0.56719417  1
  H  H22  1  0.02070818  0.73571080  0.43623429  1
  H  H23  1  0.26107218  0.87934976  0.19119330  1
  H  H24  1  0.37941309  0.84118373  0.24038956  1
  H  H25  1  0.35145694  0.74577115  0.11353841  1
  H  H26  1  0.35052135  0.65835776  0.19083782  1
  H  H27  1  0.23577301  0.69147317  0.14669464  1
  H  H28  1  0.36336866  0.77181882  0.39173637  1
  H  H29  1  0.43219555  0.71244665  0.64160493  1
  H  H30  1  0.66423311  0.35758392  0.19477712  1
  H  H31  1  0.68854357  0.28363399  0.11223573  1
  H  H32  1  0.79107571  0.32547928  0.17306673  1
  H  H33  1  0.74291924  0.13277141  0.19033321  1
  H  H34  1  0.61054501  0.17053559  0.21456474  1
  H  H35  1  0.89587536  0.21274267  0.28462329  1
  H  H36  1  0.94212639  0.23180452  0.43121340  1
  H  H37  1  0.97583188  0.21144467  0.56285086  1
  H  H38  1  0.74697809  0.36783640  0.80594628  1
  H  H39  1  0.62646101  0.32480520  0.75932818  1
  H  H40  1  0.65272096  0.24354185  0.88995274  1
  H  H41  1  0.64512654  0.14826461  0.81791748  1
  H  H42  1  0.76379593  0.18369138  0.85917283  1
  H  H43  1  0.63778116  0.26447802  0.60870517  1
  H  H44  1  0.56425819  0.20363749  0.35726583  1
  H  H45  1  0.67218705  0.64052799  0.18580207  1
  H  H46  1  0.75080276  0.68790782  0.10964791  1
  H  H47  1  0.68459168  0.77431271  0.17131059  1
  H  H48  1  0.87754538  0.76598216  0.19629636  1
  H  H49  1  0.85934873  0.62659925  0.21860834  1
  H  H50  1  0.79820359  0.90659124  0.29064925  1
  H  H51  1  0.76925372  0.95028277  0.43755780  1
  H  H52  1  0.77688113  0.98441893  0.56822876  1
  H  H53  1  0.63732419  0.74011688  0.81217528  1
  H  H54  1  0.68182576  0.62247652  0.76235131  1
  H  H55  1  0.77210973  0.64857989  0.88695099  1
  H  H56  1  0.86290542  0.66726261  0.81365939  1
  H  H57  1  0.81234948  0.77484323  0.86469095  1
  H  H58  1  0.73548002  0.63889267  0.61023469  1
  H  H59  1  0.79706733  0.57047548  0.35619424  1
  Pb  Pb60  1  0.01917362  0.00142389  0.99840254  1
  Pb  Pb61  1  -0.00100544  0.49323469  0.00267766  1
  Pb  Pb62  1  0.52606930  0.99157165  0.99983169  1
  Pb  Pb63  1  0.50494779  0.49913247  0.00517913  1
  C  C64  1  0.29140852  0.30513334  0.77835035  1
  C  C65  1  0.27931773  0.27368665  0.69017946  1
  C  C66  1  0.27623819  0.16488421  0.66686808  1
  C  C67  1  0.26671121  0.13804683  0.58477306  1
  C  C68  1  0.26083865  0.22059811  0.52651298  1
  C  C69  1  0.24905904  0.19492417  0.43890353  1
  C  C70  1  0.25040069  0.09151887  0.40607604  1
  C  C71  1  0.21951703  0.22778866  0.30008170  1
  C  C72  1  0.19383016  0.28440809  0.22314672  1
  C  C73  1  0.23217983  0.27297090  0.37682731  1
  C  C74  1  0.27376857  0.35055283  0.62796198  1
  C  C75  1  0.29939337  0.70275028  0.77796826  1
  C  C76  1  0.27047490  0.71339606  0.68964283  1
  C  C77  1  0.16336482  0.71921917  0.66705332  1
  C  C78  1  0.13821357  0.72934392  0.58517502  1
  C  C79  1  0.22098544  0.73446846  0.52649038  1
  C  C80  1  0.19830972  0.74907418  0.43906694  1
  C  C81  1  0.09705783  0.74937368  0.40562862  1
  C  C82  1  0.23733384  0.78521017  0.30139504  1
  C  C83  1  0.29762542  0.81454122  0.22583546  1
  C  C84  1  0.27856670  0.76879100  0.37810773  1
  C  C85  1  0.34747123  0.71793755  0.62696995  1
  C  C86  1  0.69473773  0.19443567  0.22076777  1
  C  C87  1  0.72563809  0.20778664  0.30877740  1
  C  C88  1  0.83314168  0.21526626  0.33121732  1
  C  C89  1  0.85881720  0.22448914  0.41336267  1
  C  C90  1  0.77655256  0.22503329  0.47256065  1
  C  C91  1  0.80010415  0.23436675  0.56049060  1
  C  C92  1  0.90087917  0.22715913  0.59402160  1
  C  C93  1  0.76423489  0.26501418  0.69957956  1
  C  C94  1  0.70679288  0.29952634  0.77493997  1
  C  C95  1  0.72182387  0.25510150  0.62226038  1
  C  C96  1  0.64923245  0.20983909  0.37185131  1
  C  C97  1  0.82287025  0.70585715  0.22392543  1
  C  C98  1  0.79854942  0.73442110  0.31130251  1
  C  C99  1  0.79079643  0.84242360  0.33581070  1
  C  C100  1  0.77610257  0.86665059  0.41806179  1
  C  C101  1  0.77130106  0.78249461  0.47547351  1
  C  C102  1  0.75976234  0.80507892  0.56363631  1
  C  C103  1  0.76371081  0.90745860  0.59835687  1
  C  C104  1  0.73232373  0.76684635  0.70261544  1
  C  C105  1  0.70465854  0.70576972  0.77822707  1
  C  C106  1  0.74219283  0.72456790  0.62463659  1
  C  C107  1  0.79074161  0.65585116  0.37247618  1
  S  S108  1  0.22847477  0.08895450  0.30347083  1
  S  S109  1  0.09937350  0.77584991  0.30351249  1
  S  S110  1  0.90060593  0.24712686  0.69720922  1
  S  S111  1  0.74521406  0.90600848  0.70157049  1
  I  I112  1  0.26765548  0.02475245  0.05020266  1
  I  I113  1  0.25105398  0.47946575  0.00817834  1
  I  I114  1  0.76433345  0.96561445  0.93810452  1
  I  I115  1  0.75012275  0.48471952  0.98464322  1
  I  I116  1  0.96736754  0.24228576  0.95553055  1
  I  I117  1  0.97358772  0.74250183  0.02388214  1
  I  I118  1  0.51465167  0.24705831  0.02123314  1
  I  I119  1  0.46504197  0.74767933  0.98227325  1
  I  I120  1  0.08274644  0.98900964  0.80082374  1
  I  I121  1  0.96298485  0.02953532  0.18147492  1
  I  I122  1  0.01463257  0.52055374  0.80363541  1
  I  I123  1  0.95744698  0.43924307  0.19168636  1
  I  I124  1  0.47762594  0.02377791  0.80527850  1
  I  I125  1  0.57278114  0.93089364  0.18625055  1
  I  I126  1  0.50411958  0.49385535  0.81741232  1
  I  I127  1  0.50271462  0.50433583  0.21515220  1
  N  N128  1  0.18940360  0.28989456  0.82707124  1
  N  N129  1  0.28403706  0.28475956  0.16117136  1
  N  N130  1  0.26448930  0.32584225  0.54833343  1
  N  N131  1  0.28805570  0.80738752  0.82389775  1
  N  N132  1  0.30865822  0.72138321  0.16587094  1
  N  N133  1  0.32453932  0.72865946  0.54760185  1
  N  N134  1  0.71176701  0.29652685  0.17243283  1
  N  N135  1  0.69237165  0.21317017  0.83888794  1
  N  N136  1  0.67270410  0.21784804  0.45148670  1
  N  N137  1  0.72627272  0.70157346  0.16937921  1
  N  N138  1  0.79424489  0.69984784  0.83903019  1
  N  N139  1  0.77819112  0.67806128  0.45235344  1
