# generated using pymatgen
data_H15PbC11SI4N3
_symmetry_space_group_name_H-M   'P 1'
_cell_length_a   12.45908766
_cell_length_b   12.36315568
_cell_length_c   16.48887342
_cell_angle_alpha   90.50099891
_cell_angle_beta   91.15306802
_cell_angle_gamma   88.93799003
_symmetry_Int_Tables_number   1
_chemical_formula_structural   H15PbC11SI4N3
_chemical_formula_sum   'H60 Pb4 C44 S4 I16 N12'
_cell_volume   2538.80166121
_cell_formula_units_Z   4
loop_
 _symmetry_equiv_pos_site_id
 _symmetry_equiv_pos_as_xyz
  1  'x, y, z'
loop_
 _atom_site_type_symbol
 _atom_site_label
 _atom_site_symmetry_multiplicity
 _atom_site_fract_x
 _atom_site_fract_y
 _atom_site_fract_z
 _atom_site_occupancy
  H  H0  1  0.16157686  0.30551510  0.82299242  1
  H  H1  1  0.21217492  0.22196541  0.89506170  1
  H  H2  1  0.13926648  0.17100214  0.81847095  1
  H  H3  1  0.35766088  0.26456451  0.81128185  1
  H  H4  1  0.32429908  0.12553804  0.79937775  1
  H  H5  1  0.24452171  0.05925935  0.66766733  1
  H  H6  1  0.21631691  0.09225301  0.52035046  1
  H  H7  1  0.18212736  0.45896273  0.43995576  1
  H  H8  1  0.33626796  0.14895669  0.22991980  1
  H  H9  1  0.20854007  0.09220669  0.24715244  1
  H  H10  1  0.22059363  0.16232630  0.11371466  1
  H  H11  1  0.12516029  0.22933051  0.16343910  1
  H  H12  1  0.24163324  0.28906697  0.14493192  1
  H  H13  1  0.28586646  0.42945814  0.55886935  1
  H  H14  1  0.31329183  0.39677617  0.70517523  1
  H  H15  1  0.31291298  0.83290799  0.82067925  1
  H  H16  1  0.22452884  0.79394814  0.89075733  1
  H  H17  1  0.18215967  0.87149704  0.81416875  1
  H  H18  1  0.25711143  0.64148801  0.80593331  1
  H  H19  1  0.12246108  0.69014294  0.79413610  1
  H  H20  1  0.05805852  0.75878393  0.66179809  1
  H  H21  1  0.09133764  0.78438907  0.51500640  1
  H  H22  1  0.45364751  0.82020571  0.44201249  1
  H  H23  1  0.14955769  0.66474228  0.22534512  1
  H  H24  1  0.09775913  0.79854236  0.23884836  1
  H  H25  1  0.17471392  0.77048217  0.10785844  1
  H  H26  1  0.23714503  0.86798376  0.15898095  1
  H  H27  1  0.29809872  0.74751212  0.14636321  1
  H  H28  1  0.42771935  0.71257450  0.55755086  1
  H  H29  1  0.39431165  0.68705198  0.70310383  1
  H  H30  1  0.69167864  0.34952756  0.18184680  1
  H  H31  1  0.76581027  0.29619683  0.10660187  1
  H  H32  1  0.82372413  0.37213911  0.17891358  1
  H  H33  1  0.73776135  0.14907732  0.19126706  1
  H  H34  1  0.87389613  0.18820721  0.20250115  1
  H  H35  1  0.93963166  0.26350188  0.33576988  1
  H  H36  1  0.90653335  0.28897500  0.48300199  1
  H  H37  1  0.54100069  0.31871078  0.55997293  1
  H  H38  1  0.85530815  0.16923345  0.76876831  1
  H  H39  1  0.90784587  0.30014443  0.75425239  1
  H  H40  1  0.84124844  0.27683339  0.88791425  1
  H  H41  1  0.77389487  0.37694229  0.84274850  1
  H  H42  1  0.71560714  0.25798270  0.85598521  1
  H  H43  1  0.57258778  0.21742684  0.44127221  1
  H  H44  1  0.60547235  0.19255015  0.29538441  1
  H  H45  1  0.65661154  0.69121495  0.18306036  1
  H  H46  1  0.69637183  0.77542812  0.10970922  1
  H  H47  1  0.62441674  0.82544575  0.18489553  1
  H  H48  1  0.84941777  0.74016006  0.19380541  1
  H  H49  1  0.80649011  0.87795340  0.20352638  1
  H  H50  1  0.73893335  0.94562282  0.33654715  1
  H  H51  1  0.71367862  0.91143681  0.48342557  1
  H  H52  1  0.68102823  0.54311809  0.55717203  1
  H  H53  1  0.82662459  0.84460530  0.77711207  1
  H  H54  1  0.69713051  0.90329732  0.75733579  1
  H  H55  1  0.71520127  0.82252318  0.88982618  1
  H  H56  1  0.61534099  0.76980074  0.83406634  1
  H  H57  1  0.73046171  0.69785746  0.85175564  1
  H  H58  1  0.78316495  0.57230074  0.44352244  1
  H  H59  1  0.80793684  0.60622124  0.29824399  1
  Pb  Pb60  1  0.99603990  -0.00183403  0.99251262  1
  Pb  Pb61  1  0.99633344  0.50428542  0.99426093  1
  Pb  Pb62  1  0.50555778  0.00765429  0.99584428  1
  Pb  Pb63  1  0.48866910  0.49822661  0.00938424  1
  C  C64  1  0.29765107  0.20880214  0.78625161  1
  C  C65  1  0.27922837  0.22623246  0.69681210  1
  C  C66  1  0.25258686  0.14082656  0.64397084  1
  C  C67  1  0.23672267  0.15893202  0.56116921  1
  C  C68  1  0.24694256  0.26335910  0.52935008  1
  C  C69  1  0.23137206  0.28439688  0.44216648  1
  C  C70  1  0.20299727  0.38376535  0.40912654  1
  C  C71  1  0.23405481  0.23978430  0.31156231  1
  C  C72  1  0.25073142  0.16856120  0.23897221  1
  C  C73  1  0.27444623  0.34843026  0.58250604  1
  C  C74  1  0.29014328  0.33015648  0.66499104  1
  C  C75  1  0.20630035  0.70758029  0.78142152  1
  C  C76  1  0.22428631  0.72289506  0.69252805  1
  C  C77  1  0.13930746  0.74936425  0.63887518  1
  C  C78  1  0.15761201  0.76377595  0.55654021  1
  C  C79  1  0.26192033  0.75238405  0.52629447  1
  C  C80  1  0.28324540  0.76778495  0.43983650  1
  C  C81  1  0.38060963  0.79850833  0.40927122  1
  C  C82  1  0.24079699  0.76542870  0.30856826  1
  C  C83  1  0.17213632  0.74968534  0.23404142  1
  C  C84  1  0.34676220  0.72495010  0.58026896  1
  C  C85  1  0.32814407  0.71048965  0.66220344  1
  C  C86  1  0.79080740  0.21197820  0.21577118  1
  C  C87  1  0.77408475  0.22871684  0.30510348  1
  C  C88  1  0.85865734  0.25490317  0.35873107  1
  C  C89  1  0.84045177  0.26959903  0.44135936  1
  C  C90  1  0.73670171  0.25876365  0.47211219  1
  C  C91  1  0.71553149  0.27410417  0.55894691  1
  C  C92  1  0.61661691  0.30068050  0.59128342  1
  C  C93  1  0.76089821  0.27273210  0.68972759  1
  C  C94  1  0.83324335  0.25531444  0.76195535  1
  C  C95  1  0.65265916  0.23083348  0.41827805  1
  C  C96  1  0.67111965  0.21640270  0.33607529  1
  C  C97  1  0.78667013  0.79435785  0.21797903  1
  C  C98  1  0.77309594  0.77764161  0.30724989  1
  C  C99  1  0.74742500  0.86348101  0.35996967  1
  C  C100  1  0.73285824  0.84462546  0.44229856  1
  C  C101  1  0.74327116  0.73919435  0.47323200  1
  C  C102  1  0.72740374  0.71665252  0.55943907  1
  C  C103  1  0.69955395  0.61722558  0.58991274  1
  C  C104  1  0.72716666  0.75806389  0.69049139  1
  C  C105  1  0.74166427  0.82633125  0.76511888  1
  C  C106  1  0.77063084  0.65392966  0.42021191  1
  C  C107  1  0.78512138  0.67294099  0.33841242  1
  S  S108  1  0.19928724  0.37638103  0.30583968  1
  S  S109  1  0.37424981  0.80368002  0.30611706  1
  S  S110  1  0.62466992  0.30525989  0.69474601  1
  S  S111  1  0.69300104  0.62226572  0.69295836  1
  I  I112  1  0.25093993  0.03940277  0.00029138  1
  I  I113  1  0.24891034  0.42967002  0.03289293  1
  I  I114  1  0.75370599  0.93325277  0.00543398  1
  I  I115  1  0.74864809  0.54407968  0.95371136  1
  I  I116  1  0.95552451  0.24960051  0.01080410  1
  I  I117  1  0.06197848  0.74870301  0.98803032  1
  I  I118  1  0.58186525  0.24675448  0.97642518  1
  I  I119  1  0.44808025  0.75094252  0.02935019  1
  I  I120  1  0.02085893  0.00260637  0.79477441  1
  I  I121  1  0.01590024  -0.00020849  0.18461901  1
  I  I122  1  0.03407874  0.46681061  0.80454854  1
  I  I123  1  0.96598504  0.51140732  0.18607317  1
  I  I124  1  0.47619375  0.94533774  0.80294452  1
  I  I125  1  0.52380959  0.01869915  0.18701495  1
  I  I126  1  0.45553748  0.51577530  0.82381192  1
  I  I127  1  0.56007048  0.50688138  0.20362757  1
  N  N128  1  0.19646213  0.22894032  0.83352088  1
  N  N129  1  0.20718750  0.21646748  0.16214268  1
  N  N130  1  0.24687984  0.20317256  0.38549365  1
  N  N131  1  0.23438085  0.80758707  0.82952993  1
  N  N132  1  0.22495926  0.78557960  0.15864500  1
  N  N133  1  0.20433137  0.75064226  0.38151150  1
  N  N134  1  0.76568423  0.31301666  0.16808250  1
  N  N135  1  0.78713650  0.29378150  0.83994877  1
  N  N136  1  0.79676875  0.26038782  0.61610054  1
  N  N137  1  0.68457567  0.76881108  0.17139405  1
  N  N138  1  0.69835655  0.77440256  0.83838907  1
  N  N139  1  0.74121974  0.79604333  0.61772976  1
