# generated using pymatgen
data_H14PbC11S(I2N)2
_symmetry_space_group_name_H-M   'P 1'
_cell_length_a   12.60380285
_cell_length_b   12.41591519
_cell_length_c   15.05508264
_cell_angle_alpha   89.31229282
_cell_angle_beta   89.23718334
_cell_angle_gamma   88.73299282
_symmetry_Int_Tables_number   1
_chemical_formula_structural   H14PbC11S(I2N)2
_chemical_formula_sum   'H56 Pb4 C44 S4 I16 N8'
_cell_volume   2354.98967954
_cell_formula_units_Z   4
loop_
 _symmetry_equiv_pos_site_id
 _symmetry_equiv_pos_as_xyz
  1  'x, y, z'
loop_
 _atom_site_type_symbol
 _atom_site_label
 _atom_site_symmetry_multiplicity
 _atom_site_fract_x
 _atom_site_fract_y
 _atom_site_fract_z
 _atom_site_occupancy
  H  H0  1  0.34032266  0.35446778  0.79793785  1
  H  H1  1  0.29324971  0.29478722  0.89001691  1
  H  H2  1  0.34990191  0.22004869  0.80995943  1
  H  H3  1  0.14494767  0.34635410  0.79811007  1
  H  H4  1  0.15804037  0.20339184  0.81241819  1
  H  H5  1  0.23773677  0.09072418  0.68979626  1
  H  H6  1  0.25315136  0.06751671  0.52752020  1
  H  H7  1  0.14271140  0.05704370  0.39268464  1
  H  H8  1  0.33259629  0.36253180  0.17694604  1
  H  H9  1  0.28154907  0.26286040  0.11549434  1
  H  H10  1  0.20337522  0.36633531  0.15147078  1
  H  H11  1  0.28625771  0.37128907  0.34839015  1
  H  H12  1  0.17568900  0.40510556  0.48775813  1
  H  H13  1  0.16603718  0.42915491  0.65057006  1
  H  H14  1  0.34866304  0.65266399  0.78331052  1
  H  H15  1  0.30852405  0.70099205  0.87990198  1
  H  H16  1  0.21785540  0.65720589  0.80778640  1
  H  H17  1  0.35234927  0.85277300  0.79195916  1
  H  H18  1  0.21147130  0.85085130  0.80689109  1
  H  H19  1  0.09907540  0.77151893  0.68610802  1
  H  H20  1  0.07567756  0.75391807  0.52414439  1
  H  H21  1  0.05984533  0.85810525  0.38136153  1
  H  H22  1  0.37479771  0.65626887  0.18235410  1
  H  H23  1  0.27680924  0.69829713  0.11647396  1
  H  H24  1  0.37127365  0.78560251  0.14431872  1
  H  H25  1  0.37818990  0.71354399  0.34917597  1
  H  H26  1  0.40513502  0.82903595  0.48043456  1
  H  H27  1  0.42942347  0.84111196  0.64312866  1
  H  H28  1  0.64392979  0.14588138  0.20575551  1
  H  H29  1  0.70661256  0.18490768  0.11384809  1
  H  H30  1  0.77632973  0.12962024  0.19722365  1
  H  H31  1  0.65607758  0.34205816  0.19967844  1
  H  H32  1  0.79620633  0.32626553  0.18563048  1
  H  H33  1  0.90680231  0.25130816  0.31081100  1
  H  H34  1  0.92988374  0.24324739  0.47352478  1
  H  H35  1  0.94058033  0.35397052  0.61158082  1
  H  H36  1  0.61732804  0.17439554  0.81275567  1
  H  H37  1  0.72508942  0.18023115  0.87649092  1
  H  H38  1  0.64665587  0.29084050  0.86101081  1
  H  H39  1  0.62788937  0.21229245  0.64917534  1
  H  H40  1  0.59815658  0.32596577  0.51172565  1
  H  H41  1  0.57456753  0.33070437  0.34877611  1
  H  H42  1  0.85345874  0.65116439  0.21552490  1
  H  H43  1  0.80878649  0.70018863  0.12019805  1
  H  H44  1  0.84637186  0.78602044  0.19796777  1
  H  H45  1  0.65757824  0.64366209  0.20607225  1
  H  H46  1  0.65604959  0.78693114  0.19276300  1
  H  H47  1  0.73241619  0.90055409  0.31559220  1
  H  H48  1  0.74701169  0.92314659  0.47761379  1
  H  H49  1  0.63683042  0.93471122  0.61948607  1
  H  H50  1  0.87127889  0.63592983  0.81136654  1
  H  H51  1  0.83147406  0.73514673  0.87727010  1
  H  H52  1  0.75131047  0.63185008  0.86346115  1
  H  H53  1  0.79936446  0.62121499  0.64973085  1
  H  H54  1  0.67258320  0.58826866  0.51857082  1
  H  H55  1  0.66314487  0.56463881  0.35579692  1
  Pb  Pb56  1  0.00802459  0.00723747  0.99852913  1
  Pb  Pb57  1  0.00584593  0.49336223  0.00359388  1
  Pb  Pb58  1  0.49502255  1.00388133  0.99861546  1
  Pb  Pb59  1  0.50750950  0.50175413  0.99313391  1
  C  C60  1  0.19288778  0.27463106  0.78050546  1
  C  C61  1  0.20202386  0.26172045  0.68151303  1
  C  C62  1  0.22539700  0.16008129  0.64570401  1
  C  C63  1  0.23269680  0.14676430  0.55420280  1
  C  C64  1  0.21469635  0.23437373  0.49584252  1
  C  C65  1  0.21550596  0.21804986  0.39925091  1
  C  C66  1  0.17716555  0.12668267  0.36005880  1
  C  C67  1  0.24166570  0.25476012  0.24990522  1
  C  C68  1  0.25247670  0.29350103  0.33406843  1
  C  C69  1  0.19199851  0.33645154  0.53189179  1
  C  C70  1  0.18622887  0.34991161  0.62364953  1
  C  C71  1  0.28001131  0.81091990  0.77411108  1
  C  C72  1  0.26600449  0.80637655  0.67543377  1
  C  C73  1  0.16630574  0.78351464  0.64098178  1
  C  C74  1  0.15292157  0.77493588  0.54986742  1
  C  C75  1  0.23839512  0.79117552  0.49058887  1
  C  C76  1  0.22277011  0.78646726  0.39404928  1
  C  C77  1  0.13129158  0.82232063  0.35195346  1
  C  C78  1  0.26341534  0.75363748  0.24680925  1
  C  C79  1  0.30040204  0.74672190  0.33181097  1
  C  C80  1  0.33824711  0.81443926  0.52543479  1
  C  C81  1  0.35187992  0.82166641  0.61691844  1
  C  C82  1  0.72596020  0.29349370  0.21936955  1
  C  C83  1  0.73889849  0.29034742  0.31851130  1
  C  C84  1  0.83884541  0.26709001  0.35479985  1
  C  C85  1  0.85201751  0.26355329  0.44640940  1
  C  C86  1  0.76578866  0.28428195  0.50451279  1
  C  C87  1  0.78060978  0.28333507  0.60141986  1
  C  C88  1  0.87032251  0.31997536  0.64250810  1
  C  C89  1  0.74061932  0.25381361  0.75016619  1
  C  C90  1  0.70450109  0.24548318  0.66512340  1
  C  C91  1  0.66567223  0.30760599  0.46788196  1
  C  C92  1  0.65244652  0.31044244  0.37604072  1
  C  C93  1  0.69617985  0.71796617  0.22554995  1
  C  C94  1  0.69752160  0.73103824  0.32456714  1
  C  C95  1  0.71877300  0.83205346  0.36004124  1
  C  C96  1  0.72615487  0.84501181  0.45129090  1
  C  C97  1  0.70984736  0.75760011  0.50979346  1
  C  C98  1  0.71560087  0.77332606  0.60626090  1
  C  C99  1  0.67751529  0.86501059  0.64857369  1
  C  C100  1  0.75857990  0.73725197  0.75257963  1
  C  C101  1  0.76237860  0.69819495  0.66773805  1
  C  C102  1  0.68731241  0.65660391  0.47410267  1
  C  C103  1  0.68158800  0.64335723  0.38241381  1
  S  S104  1  0.18524487  0.13026747  0.24689654  1
  S  S105  1  0.13801571  0.80930234  0.23902140  1
  S  S106  1  0.86424152  0.30868249  0.75572593  1
  S  S107  1  0.69749057  0.86177021  0.76050759  1
  I  I108  1  0.24500843  0.08870922  0.00551149  1
  I  I109  1  0.25447552  0.51545586  -0.00106150  1
  I  I110  1  0.74114846  0.00485651  0.98008497  1
  I  I111  1  0.74995757  0.51496108  0.01538665  1
  I  I112  1  0.94020954  0.25032596  0.00263092  1
  I  I113  1  0.98130255  0.74890077  0.00475905  1
  I  I114  1  0.50814807  0.25609916  0.02560380  1
  I  I115  1  0.48648838  0.75495293  0.97047801  1
  I  I116  1  0.01440476  0.99524303  0.79722668  1
  I  I117  1  0.91586666  0.98587005  0.21897835  1
  I  I118  1  0.04029639  0.55408675  0.78169110  1
  I  I119  1  0.01926603  0.48658927  0.20997837  1
  I  I120  1  0.47361037  0.06374936  0.77725996  1
  I  I121  1  0.49362492  0.97460232  0.20455429  1
  I  I122  1  0.50752190  0.48356151  0.78246436  1
  I  I123  1  0.47146961  0.49703637  0.21662323  1
  N  N124  1  0.30031785  0.28753185  0.82198646  1
  N  N125  1  0.26595690  0.31405275  0.16865765  1
  N  N126  1  0.28878040  0.69851835  0.81335988  1
  N  N127  1  0.32372768  0.72360167  0.16781296  1
  N  N128  1  0.71221484  0.18223913  0.18231259  1
  N  N129  1  0.68121553  0.22472076  0.82973145  1
  N  N130  1  0.80788507  0.71335663  0.18804017  1
  N  N131  1  0.80297806  0.68294813  0.82987530  1
