# generated using pymatgen
data_H15PbC12SI4N2F
_symmetry_space_group_name_H-M   'P 1'
_cell_length_a   12.55818283
_cell_length_b   12.66297475
_cell_length_c   16.43918243
_cell_angle_alpha   90.30028708
_cell_angle_beta   89.11759874
_cell_angle_gamma   88.92102682
_symmetry_Int_Tables_number   1
_chemical_formula_structural   H15PbC12SI4N2F
_chemical_formula_sum   'H60 Pb4 C48 S4 I16 N8 F4'
_cell_volume   2613.41026543
_cell_formula_units_Z   4
loop_
 _symmetry_equiv_pos_site_id
 _symmetry_equiv_pos_as_xyz
  1  'x, y, z'
loop_
 _atom_site_type_symbol
 _atom_site_label
 _atom_site_symmetry_multiplicity
 _atom_site_fract_x
 _atom_site_fract_y
 _atom_site_fract_z
 _atom_site_occupancy
  H  H0  1  0.22560825  0.17099874  0.89201645  1
  H  H1  1  0.28159797  0.28399604  0.86435442  1
  H  H2  1  0.16306202  0.25362504  0.82638024  1
  H  H3  1  0.37058921  0.13795377  0.79843325  1
  H  H4  1  0.24551396  0.09012017  0.76546085  1
  H  H5  1  0.22808521  0.11846095  0.61049806  1
  H  H6  1  0.21934229  0.42666815  0.46299097  1
  H  H7  1  0.18365201  0.41574318  0.31528811  1
  H  H8  1  0.13330305  0.17859755  0.20657632  1
  H  H9  1  0.16137171  0.31594048  0.19475126  1
  H  H10  1  0.32774337  0.14195064  0.18453810  1
  H  H11  1  0.26712136  0.19739776  0.10612303  1
  H  H12  1  0.34263012  0.27114028  0.16441480  1
  H  H13  1  0.29887869  0.09229587  0.46333280  1
  H  H14  1  0.36141836  0.42864043  0.56260007  1
  H  H15  1  0.15162690  0.76512396  0.89375679  1
  H  H16  1  0.27011761  0.71717582  0.86456419  1
  H  H17  1  0.22810821  0.83791043  0.83283942  1
  H  H18  1  0.12929914  0.63029484  0.79575660  1
  H  H19  1  0.07964017  0.75558295  0.76258755  1
  H  H20  1  0.11781486  0.77634236  0.60975444  1
  H  H21  1  0.43268739  0.78187688  0.46522853  1
  H  H22  1  0.42776440  0.81445944  0.31668374  1
  H  H23  1  0.20063582  0.86382584  0.20357259  1
  H  H24  1  0.33591734  0.82207396  0.19208919  1
  H  H25  1  0.15151553  0.67383793  0.18702762  1
  H  H26  1  0.21199022  0.72612606  0.10683869  1
  H  H27  1  0.27977550  0.64350207  0.16871631  1
  H  H28  1  0.09877385  0.70298410  0.46243951  1
  H  H29  1  0.43387799  0.63549929  0.56563665  1
  H  H30  1  0.83499666  0.26745687  0.10544373  1
  H  H31  1  0.71962943  0.22690185  0.14449939  1
  H  H32  1  0.76658954  0.34618733  0.16968538  1
  H  H33  1  0.87662430  0.13814785  0.19994334  1
  H  H34  1  0.91935439  0.26310840  0.23529380  1
  H  H35  1  0.88121455  0.28390951  0.39120604  1
  H  H36  1  0.57251984  0.28761175  0.53654574  1
  H  H37  1  0.58038414  0.32507656  0.68472983  1
  H  H38  1  0.80779303  0.37098266  0.79490867  1
  H  H39  1  0.67349984  0.33087675  0.80841368  1
  H  H40  1  0.86043385  0.18089806  0.81002238  1
  H  H41  1  0.80545919  0.23664366  0.89206865  1
  H  H42  1  0.73202542  0.15515748  0.83372148  1
  H  H43  1  0.90604973  0.19475538  0.53725203  1
  H  H44  1  0.58140360  0.12315187  0.43670091  1
  H  H45  1  0.72580713  0.83398238  0.10575488  1
  H  H46  1  0.75728531  0.71162091  0.13816621  1
  H  H47  1  0.64575107  0.77283879  0.17068914  1
  H  H48  1  0.86285162  0.85553381  0.19986882  1
  H  H49  1  0.74115670  0.91245154  0.23653888  1
  H  H50  1  0.72946936  0.88281574  0.39259366  1
  H  H51  1  0.71240146  0.57151024  0.53582177  1
  H  H52  1  0.67451710  0.58297684  0.68408778  1
  H  H53  1  0.61457108  0.81374888  0.78773651  1
  H  H54  1  0.65358092  0.67979039  0.80468193  1
  H  H55  1  0.79281747  0.86747904  0.82332681  1
  H  H56  1  0.72701073  0.80161698  0.89686027  1
  H  H57  1  0.82749823  0.74304157  0.84519412  1
  H  H58  1  0.80702376  0.89869865  0.53751732  1
  H  H59  1  0.85250276  0.56206010  0.43089421  1
  Pb  Pb60  1  0.00767124  0.99464144  0.99125143  1
  Pb  Pb61  1  0.01545499  0.49444319  0.98997363  1
  Pb  Pb62  1  0.51476618  0.00769434  0.99621052  1
  Pb  Pb63  1  0.50686120  0.50280308  0.01695191  1
  C  C64  1  0.29189346  0.16163134  0.77503445  1
  C  C65  1  0.29958324  0.22317165  0.69838177  1
  C  C66  1  0.26783023  0.19269358  0.62206516  1
  C  C67  1  0.28889073  0.27009712  0.56119591  1
  C  C68  1  0.26287280  0.26147398  0.47452177  1
  C  C69  1  0.22976664  0.35139594  0.43106380  1
  C  C70  1  0.20891509  0.34534061  0.34832307  1
  C  C71  1  0.21813121  0.24905232  0.30603218  1
  C  C72  1  0.19210221  0.24016552  0.21765122  1
  C  C73  1  0.24891037  0.16058342  0.35104463  1
  C  C74  1  0.27214780  0.16422777  0.43310490  1
  C  C75  1  0.33644589  0.35793655  0.59417020  1
  C  C76  1  0.15235388  0.70901362  0.77405151  1
  C  C77  1  0.22008449  0.70261850  0.69913262  1
  C  C78  1  0.19278813  0.73531275  0.62231509  1
  C  C79  1  0.27358177  0.71234357  0.56229446  1
  C  C80  1  0.26770617  0.73786628  0.47519719  1
  C  C81  1  0.35909740  0.77026098  0.43228180  1
  C  C82  1  0.35650966  0.78846808  0.34896199  1
  C  C83  1  0.26257786  0.77676301  0.30516719  1
  C  C84  1  0.25777835  0.79909408  0.21583769  1
  C  C85  1  0.17210963  0.74888707  0.34994066  1
  C  C86  1  0.17206764  0.72829301  0.43267456  1
  C  C87  1  0.36105645  0.66236589  0.59644940  1
  C  C88  1  0.84907034  0.21485658  0.22521477  1
  C  C89  1  0.78607408  0.20304049  0.30183986  1
  C  C90  1  0.81053680  0.23836354  0.37849155  1
  C  C91  1  0.73271904  0.21088569  0.43875221  1
  C  C92  1  0.73784326  0.23805590  0.52571733  1
  C  C93  1  0.64692349  0.27501654  0.56880539  1
  C  C94  1  0.65122685  0.29605949  0.65189299  1
  C  C95  1  0.74580059  0.28158640  0.69493248  1
  C  C96  1  0.75190521  0.30671011  0.78387583  1
  C  C97  1  0.83514205  0.24678021  0.65003288  1
  C  C98  1  0.83376608  0.22473777  0.56752623  1
  C  C99  1  0.65066779  0.15455023  0.40540695  1
  C  C100  1  0.78323440  0.83711251  0.22442555  1
  C  C101  1  0.78851791  0.77271346  0.29981229  1
  C  C102  1  0.76339778  0.80494536  0.37815203  1
  C  C103  1  0.78478973  0.72504395  0.43711712  1
  C  C104  1  0.76256137  0.73331820  0.52497993  1
  C  C105  1  0.72614414  0.64516214  0.56834962  1
  C  C106  1  0.70473243  0.65142128  0.65155429  1
  C  C107  1  0.71771971  0.74610583  0.69470941  1
  C  C108  1  0.68078598  0.75607665  0.78152139  1
  C  C109  1  0.75459234  0.83208512  0.65017703  1
  C  C110  1  0.77730015  0.82835403  0.56748543  1
  C  C111  1  0.82709932  0.63425953  0.40087440  1
  S  S112  1  0.35643071  0.34622607  0.69607385  1
  S  S113  1  0.34440740  0.64171777  0.69840335  1
  S  S114  1  0.66896632  0.13356866  0.30331725  1
  S  S115  1  0.84088112  0.64577849  0.29821025  1
  I  I116  1  0.25872063  0.99190566  0.96921416  1
  I  I117  1  0.25822107  0.52650314  0.95377125  1
  I  I118  1  0.75713171  0.02322635  0.04138544  1
  I  I119  1  0.75290220  0.51442077  0.06666903  1
  I  I120  1  0.98764105  0.24581275  0.00023315  1
  I  I121  1  0.98459550  0.74601924  0.99023605  1
  I  I122  1  0.45838433  0.25803732  0.99697418  1
  I  I123  1  0.54302788  0.76031337  0.98602820  1
  I  I124  1  0.00335765  0.98920865  0.79374623  1
  I  I125  1  0.03575658  0.98825786  0.17982588  1
  I  I126  1  0.00529552  0.45772740  0.79865734  1
  I  I127  1  0.04222818  0.49485286  0.18269167  1
  I  I128  1  0.57692938  0.04235241  0.80889750  1
  I  I129  1  0.47829279  0.99029660  0.18719204  1
  I  I130  1  0.54401822  0.50043561  0.82892000  1
  I  I131  1  0.41633401  0.50279581  0.20235158  1
  N  N132  1  0.23614759  0.22256998  0.84334936  1
  N  N133  1  0.28818317  0.21069712  0.16566352  1
  N  N134  1  0.20555106  0.76157668  0.84475826  1
  N  N135  1  0.22290990  0.70557265  0.16666477  1
  N  N136  1  0.78736414  0.26773274  0.15821805  1
  N  N137  1  0.79020778  0.21388930  0.83306460  1
  N  N138  1  0.72472762  0.78448992  0.15619348  1
  N  N139  1  0.76352948  0.79461434  0.83976462  1
  F  F140  1  0.25827300  0.06547068  0.31129857  1
  F  F141  1  0.07837775  0.73944178  0.30905589  1
  F  F142  1  0.92881599  0.23083241  0.69031303  1
  F  F143  1  0.76950661  0.92529248  0.69051192  1
