# generated using pymatgen
data_H15PbC11SI4N3
_symmetry_space_group_name_H-M   'P 1'
_cell_length_a   12.60200219
_cell_length_b   12.70629941
_cell_length_c   15.88033095
_cell_angle_alpha   90.81872041
_cell_angle_beta   90.28062163
_cell_angle_gamma   89.73300580
_symmetry_Int_Tables_number   1
_chemical_formula_structural   H15PbC11SI4N3
_chemical_formula_sum   'H60 Pb4 C44 S4 I16 N12'
_cell_volume   2542.51813983
_cell_formula_units_Z   4
loop_
 _symmetry_equiv_pos_site_id
 _symmetry_equiv_pos_as_xyz
  1  'x, y, z'
loop_
 _atom_site_type_symbol
 _atom_site_label
 _atom_site_symmetry_multiplicity
 _atom_site_fract_x
 _atom_site_fract_y
 _atom_site_fract_z
 _atom_site_occupancy
  H  H0  1  0.19485304  0.40537959  0.80313256  1
  H  H1  1  0.32218441  0.37520650  0.82122779  1
  H  H2  1  0.22923853  0.35368446  0.89591769  1
  H  H3  1  0.14142186  0.22273413  0.81824366  1
  H  H4  1  0.27620415  0.18795254  0.83115420  1
  H  H5  1  0.19338679  0.07163061  0.70077549  1
  H  H6  1  0.20597677  0.06217735  0.54341024  1
  H  H7  1  0.33111364  0.06147246  0.42475561  1
  H  H8  1  0.13584854  0.28660549  0.19125172  1
  H  H9  1  0.16659634  0.40477003  0.24622324  1
  H  H10  1  0.25112072  0.39816270  0.11410935  1
  H  H11  1  0.34807157  0.39104464  0.18703941  1
  H  H12  1  0.31074646  0.28446235  0.13087938  1
  H  H13  1  0.19316633  0.37585259  0.40186429  1
  H  H14  1  0.28893438  0.39164148  0.54854365  1
  H  H15  1  0.41068692  0.79277356  0.79750965  1
  H  H16  1  0.37498696  0.66918586  0.81929617  1
  H  H17  1  0.36472635  0.76509408  0.89349476  1
  H  H18  1  0.22983471  0.85663984  0.82275499  1
  H  H19  1  0.19058516  0.72369517  0.83301533  1
  H  H20  1  0.07123724  0.80586589  0.70501252  1
  H  H21  1  0.06102522  0.79472319  0.54780195  1
  H  H22  1  0.06100690  0.67451193  0.42441989  1
  H  H23  1  0.28490081  0.86732199  0.19151570  1
  H  H24  1  0.40404465  0.84568833  0.24825512  1
  H  H25  1  0.40754958  0.75478363  0.11779954  1
  H  H26  1  0.40276980  0.66223461  0.19188586  1
  H  H27  1  0.29573993  0.69091121  0.13367662  1
  H  H28  1  0.37784574  0.81016788  0.40420250  1
  H  H29  1  0.39428850  0.71346186  0.54736252  1
  H  H30  1  0.59217613  0.26434405  0.21498281  1
  H  H31  1  0.63651895  0.15298534  0.17250864  1
  H  H32  1  0.62678666  0.25944668  0.11180937  1
  H  H33  1  0.76718399  0.34892557  0.17643495  1
  H  H34  1  0.81263947  0.21657924  0.16723191  1
  H  H35  1  0.93050832  0.29801533  0.29538620  1
  H  H36  1  0.94016304  0.28959341  0.45266712  1
  H  H37  1  0.94123684  0.17064159  0.57258235  1
  H  H38  1  0.70746069  0.35076398  0.81175591  1
  H  H39  1  0.59024888  0.32522892  0.75324296  1
  H  H40  1  0.58977094  0.23061566  0.87960344  1
  H  H41  1  0.60107100  0.14022532  0.80277896  1
  H  H42  1  0.70594770  0.17265791  0.86395333  1
  H  H43  1  0.62157166  0.30261744  0.59712321  1
  H  H44  1  0.60571198  0.21640070  0.45158499  1
  H  H45  1  0.72444045  0.59244188  0.21011812  1
  H  H46  1  0.84223995  0.62869341  0.17575248  1
  H  H47  1  0.73799089  0.63335702  0.10990457  1
  H  H48  1  0.65341842  0.77287514  0.17880179  1
  H  H49  1  0.78818021  0.80977437  0.17033128  1
  H  H50  1  0.71358562  0.92986834  0.29867320  1
  H  H51  1  0.71719774  0.93829513  0.45605787  1
  H  H52  1  0.83067722  0.93621909  0.57860789  1
  H  H53  1  0.64412925  0.70752939  0.81221349  1
  H  H54  1  0.67072122  0.59072914  0.75406299  1
  H  H55  1  0.76698570  0.58940686  0.88141237  1
  H  H56  1  0.85824190  0.60291046  0.80616389  1
  H  H57  1  0.82355660  0.70529977  0.86816086  1
  H  H58  1  0.69473640  0.62162663  0.59767043  1
  H  H59  1  0.78192978  0.60415987  0.45356718  1
  Pb  Pb60  1  0.99941060  0.98987979  0.01093489  1
  Pb  Pb61  1  0.00562092  0.49269295  0.99488519  1
  Pb  Pb62  1  0.51395720  0.98490272  0.99037888  1
  Pb  Pb63  1  0.50141336  0.49115526  -0.00103243  1
  C  C64  1  0.22254484  0.24315424  0.79922562  1
  C  C65  1  0.23398038  0.23665820  0.70508167  1
  C  C66  1  0.21576720  0.14006931  0.66427874  1
  C  C67  1  0.22302533  0.13544927  0.57735762  1
  C  C68  1  0.25020706  0.22604106  0.53243432  1
  C  C69  1  0.25983816  0.22065443  0.44027411  1
  C  C70  1  0.29801193  0.13245692  0.39761175  1
  C  C71  1  0.23862469  0.26975135  0.29975048  1
  C  C72  1  0.19903581  0.32848371  0.22582726  1
  C  C73  1  0.22741362  0.30023664  0.38293015  1
  C  C74  1  0.26701771  0.31874738  0.57981371  1
  C  C75  1  0.24688146  0.77552592  0.80130492  1
  C  C76  1  0.23830266  0.76567812  0.70688941  1
  C  C77  1  0.14040564  0.78398086  0.66760783  1
  C  C78  1  0.13535833  0.77768645  0.58049856  1
  C  C79  1  0.22675920  0.75158897  0.53390241  1
  C  C80  1  0.22143267  0.74391554  0.44147589  1
  C  C81  1  0.13269262  0.70764081  0.39810890  1
  C  C82  1  0.27079636  0.76924759  0.30136316  1
  C  C83  1  0.32975726  0.80868362  0.22769066  1
  C  C84  1  0.30157982  0.77750868  0.38467144  1
  C  C85  1  0.32068449  0.73467342  0.57983342  1
  C  C86  1  0.75418704  0.26831930  0.19838513  1
  C  C87  1  0.76295822  0.26270189  0.29296196  1
  C  C88  1  0.86083856  0.27941781  0.33255294  1
  C  C89  1  0.86575491  0.27395280  0.41956070  1
  C  C90  1  0.77421972  0.24941800  0.46566632  1
  C  C91  1  0.77963406  0.23936996  0.55766684  1
  C  C92  1  0.86848593  0.20183835  0.59984197  1
  C  C93  1  0.72790405  0.25704013  0.69833910  1
  C  C94  1  0.66601694  0.29096875  0.77334932  1
  C  C95  1  0.69814427  0.26958749  0.61543400  1
  C  C96  1  0.67975589  0.23545418  0.41961238  1
  C  C97  1  0.73419298  0.75446965  0.20081892  1
  C  C98  1  0.74158494  0.76200823  0.29541071  1
  C  C99  1  0.72831613  0.85972876  0.33564979  1
  C  C100  1  0.73168066  0.86398183  0.42277415  1
  C  C101  1  0.75234271  0.77210718  0.46864779  1
  C  C102  1  0.76045892  0.77708312  0.56093684  1
  C  C103  1  0.79814282  0.86471777  0.60462206  1
  C  C104  1  0.73971377  0.72646077  0.70082148  1
  C  C105  1  0.70493202  0.66583349  0.77500171  1
  C  C106  1  0.72836843  0.69695176  0.61743085  1
  C  C107  1  0.76487657  0.67823082  0.42181232  1
  S  S108  1  0.29067562  0.14431748  0.29099492  1
  S  S109  1  0.14465766  0.71851192  0.29174483  1
  S  S110  1  0.85452314  0.20614511  0.70654815  1
  S  S111  1  0.79174702  0.85124964  0.71103968  1
  I  I112  1  0.27412967  0.93688354  0.01169034  1
  I  I113  1  0.24897907  0.56786058  0.00467742  1
  I  I114  1  0.76453751  0.08030900  0.99598636  1
  I  I115  1  0.74509676  0.43353823  0.98767140  1
  I  I116  1  0.08685557  0.26276014  0.00679941  1
  I  I117  1  0.92840123  0.75043356  0.00534381  1
  I  I118  1  0.44357131  0.24400719  0.99545859  1
  I  I119  1  0.56838410  0.73543082  0.99632444  1
  I  I120  1  0.02631795  0.99875942  0.81210589  1
  I  I121  1  0.98367150  0.01089754  0.20725091  1
  I  I122  1  0.01934556  0.50111355  0.78593743  1
  I  I123  1  0.98162191  0.50074224  0.19234119  1
  I  I124  1  0.48693965  0.98553499  0.78446911  1
  I  I125  1  0.53851273  0.99193443  0.18802752  1
  I  I126  1  0.47046068  0.49867087  0.80190426  1
  I  I127  1  0.51494822  0.49562960  0.21167526  1
  N  N128  1  0.24468564  0.35071190  0.83195935  1
  N  N129  1  0.28258309  0.35135866  0.16133015  1
  N  N130  1  0.25901753  0.32454415  0.66400860  1
  N  N131  1  0.35581973  0.74820985  0.83009003  1
  N  N132  1  0.36030025  0.72411533  0.16483601  1
  N  N133  1  0.32685607  0.74175909  0.66411457  1
  N  N134  1  0.64617805  0.23506541  0.17154680  1
  N  N135  1  0.64029879  0.20376209  0.83222884  1
  N  N136  1  0.67385704  0.24259118  0.33549039  1
  N  N137  1  0.76088543  0.64623504  0.17156063  1
  N  N138  1  0.79312055  0.64051353  0.83529231  1
  N  N139  1  0.75844487  0.67266273  0.33747964  1
