# generated using pymatgen
data_H16PbC14S2(I2N)2
_symmetry_space_group_name_H-M   'P 1'
_cell_length_a   12.55359758
_cell_length_b   12.41812411
_cell_length_c   18.57652464
_cell_angle_alpha   89.27490321
_cell_angle_beta   90.60475368
_cell_angle_gamma   89.47467117
_symmetry_Int_Tables_number   1
_chemical_formula_structural   H16PbC14S2(I2N)2
_chemical_formula_sum   'H64 Pb4 C56 S8 I16 N8'
_cell_volume   2895.41553529
_cell_formula_units_Z   4
loop_
 _symmetry_equiv_pos_site_id
 _symmetry_equiv_pos_as_xyz
  1  'x, y, z'
loop_
 _atom_site_type_symbol
 _atom_site_label
 _atom_site_symmetry_multiplicity
 _atom_site_fract_x
 _atom_site_fract_y
 _atom_site_fract_z
 _atom_site_occupancy
  H  H0  1  0.29077703  0.35469695  0.90476785  1
  H  H1  1  0.37016676  0.36292789  0.83352099  1
  H  H2  1  0.31131401  0.24544090  0.85172982  1
  H  H3  1  0.21158043  0.45349667  0.80121193  1
  H  H4  1  0.13368195  0.34661720  0.83580049  1
  H  H5  1  0.10250181  0.17440994  0.76136858  1
  H  H6  1  0.13157183  0.10658760  0.62903618  1
  H  H7  1  0.28725760  0.06072799  0.55332910  1
  H  H8  1  0.32978539  0.02002605  0.42623707  1
  H  H9  1  0.35061757  0.10699838  0.28632443  1
  H  H10  1  0.40126442  0.36422756  0.19702574  1
  H  H11  1  0.37841505  0.22538981  0.18003149  1
  H  H12  1  0.20235162  0.26604393  0.14177210  1
  H  H13  1  0.27785043  0.36186344  0.10746780  1
  H  H14  1  0.19931102  0.38774024  0.17745276  1
  H  H15  1  0.23920932  0.39745740  0.49946488  1
  H  H16  1  0.37485450  0.70917156  0.90332749  1
  H  H17  1  0.36064047  0.62818186  0.83330492  1
  H  H18  1  0.25604265  0.70243764  0.86256926  1
  H  H19  1  0.45709221  0.78489731  0.79982067  1
  H  H20  1  0.35471525  0.86809768  0.83464109  1
  H  H21  1  0.18418894  0.91001116  0.75893233  1
  H  H22  1  0.11479663  0.88531382  0.62549721  1
  H  H23  1  0.06112372  0.72053862  0.55312729  1
  H  H24  1  0.01588281  0.67747393  0.42630544  1
  H  H25  1  0.09506624  0.65730268  0.28653910  1
  H  H26  1  0.33461796  0.58851685  0.19853244  1
  H  H27  1  0.20362240  0.63484246  0.17774907  1
  H  H28  1  0.27280081  0.79340833  0.12945209  1
  H  H29  1  0.37163905  0.70570356  0.11569031  1
  H  H30  1  0.38113759  0.79395408  0.18187086  1
  H  H31  1  0.39244967  0.76039095  0.49859443  1
  H  H32  1  0.67462087  0.18362389  0.09561465  1
  H  H33  1  0.65396808  0.10606724  0.16713934  1
  H  H34  1  0.77112757  0.16870313  0.15720942  1
  H  H35  1  0.55833860  0.26056840  0.19176762  1
  H  H36  1  0.65972446  0.34408148  0.15699361  1
  H  H37  1  0.82467895  0.39328446  0.23735024  1
  H  H38  1  0.88128158  0.38268642  0.37417273  1
  H  H39  1  0.93442610  0.22772705  0.45179557  1
  H  H40  1  0.97692645  0.18068480  0.57908649  1
  H  H41  1  0.89222058  0.14055220  0.71614059  1
  H  H42  1  0.63654014  0.07565344  0.80414645  1
  H  H43  1  0.77675345  0.09056573  0.81858038  1
  H  H44  1  0.74469359  0.28171710  0.83945570  1
  H  H45  1  0.67900635  0.19821335  0.89599449  1
  H  H46  1  0.61208552  0.26432568  0.82892963  1
  H  H47  1  0.59921068  0.25322017  0.50016921  1
  H  H48  1  0.83244706  0.68130281  0.09885315  1
  H  H49  1  0.90400725  0.65409704  0.17165813  1
  H  H50  1  0.84735376  0.77813477  0.16050074  1
  H  H51  1  0.74441423  0.56507448  0.19085123  1
  H  H52  1  0.66995789  0.67584939  0.15677826  1
  H  H53  1  0.60642498  0.82406821  0.23840407  1
  H  H54  1  0.61418274  0.87969379  0.37485703  1
  H  H55  1  0.77790785  0.93905435  0.45046153  1
  H  H56  1  0.82635563  0.97953199  0.57698963  1
  H  H57  1  0.86463160  0.89113633  0.71535150  1
  H  H58  1  0.93252730  0.63407910  0.80357576  1
  H  H59  1  0.90624243  0.77338980  0.82005864  1
  H  H60  1  0.71843382  0.71890354  0.84237068  1
  H  H61  1  0.81100413  0.66534646  0.89779796  1
  H  H62  1  0.75616381  0.58946826  0.83253136  1
  H  H63  1  0.74942959  0.60056146  0.50268886  1
  Pb  Pb64  1  -0.00255375  0.98455398  0.00415575  1
  Pb  Pb65  1  0.99959729  0.46397659  0.99280784  1
  Pb  Pb66  1  0.47321504  0.00938666  0.99267661  1
  Pb  Pb67  1  0.53105465  0.49675123  0.98026343  1
  C  C68  1  0.20628130  0.36555454  0.80595606  1
  C  C69  1  0.20314133  0.31071014  0.73521569  1
  C  C70  1  0.15074691  0.21597313  0.72137104  1
  C  C71  1  0.16651874  0.17950429  0.65055850  1
  C  C72  1  0.22939144  0.24722592  0.60951605  1
  C  C73  1  0.25988934  0.23121599  0.53439561  1
  C  C74  1  0.28575344  0.12488420  0.51271393  1
  C  C75  1  0.31013124  0.10208741  0.44204588  1
  C  C76  1  0.30920670  0.18557691  0.39006057  1
  C  C77  1  0.32837707  0.18011815  0.31460790  1
  C  C78  1  0.31854122  0.27786157  0.28021920  1
  C  C79  1  0.34388263  0.29838754  0.20342366  1
  C  C80  1  0.28484934  0.29236510  0.41213062  1
  C  C81  1  0.26044716  0.31578710  0.48362308  1
  C  C82  1  0.37057700  0.79391482  0.80494226  1
  C  C83  1  0.31239399  0.79734398  0.73500664  1
  C  C84  1  0.22169076  0.85739358  0.71979321  1
  C  C85  1  0.18458499  0.84433271  0.64836988  1
  C  C86  1  0.24776944  0.77570697  0.60848608  1
  C  C87  1  0.22910388  0.74427935  0.53359655  1
  C  C88  1  0.12303160  0.72021030  0.51241810  1
  C  C89  1  0.09766676  0.69567945  0.44196046  1
  C  C90  1  0.17810652  0.69510264  0.38980510  1
  C  C91  1  0.16887368  0.67765950  0.31429119  1
  C  C92  1  0.26372476  0.68556337  0.27928529  1
  C  C93  1  0.27955852  0.65760672  0.20276227  1
  C  C94  1  0.28489292  0.71673775  0.41139771  1
  C  C95  1  0.31092650  0.74113385  0.48278729  1
  C  C96  1  0.64449382  0.27277854  0.19056975  1
  C  C97  1  0.69359122  0.28621888  0.26285662  1
  C  C98  1  0.78254332  0.34674095  0.27809823  1
  C  C99  1  0.81378416  0.34008705  0.35128911  1
  C  C100  1  0.74848306  0.27486853  0.39233365  1
  C  C101  1  0.76467546  0.24483534  0.46821207  1
  C  C102  1  0.87112326  0.22398196  0.49141477  1
  C  C103  1  0.89489997  0.19652484  0.56207772  1
  C  C104  1  0.81226812  0.18808550  0.61234246  1
  C  C105  1  0.81867937  0.16002798  0.68690084  1
  C  C106  1  0.72139985  0.15823662  0.71935958  1
  C  C107  1  0.70446348  0.12944024  0.79624226  1
  C  C108  1  0.70529714  0.20768717  0.58892905  1
  C  C109  1  0.68108742  0.23614140  0.51736374  1
  C  C110  1  0.73832627  0.65323878  0.19097365  1
  C  C111  1  0.72285782  0.69880215  0.26376415  1
  C  C112  1  0.65630839  0.78404394  0.27918779  1
  C  C113  1  0.66100531  0.81441242  0.35216890  1
  C  C114  1  0.73077652  0.75165989  0.39314278  1
  C  C115  1  0.76024985  0.76765508  0.46881983  1
  C  C116  1  0.78158167  0.87452924  0.49076469  1
  C  C117  1  0.80940391  0.89721413  0.56111405  1
  C  C118  1  0.81670752  0.81294155  0.61231838  1
  C  C119  1  0.84323824  0.81783408  0.68708154  1
  C  C120  1  0.84256596  0.71903981  0.72063565  1
  C  C121  1  0.87348349  0.69941182  0.79705925  1
  C  C122  1  0.79575622  0.70571314  0.59017874  1
  C  C123  1  0.76763663  0.68254178  0.51893460  1
  S  S124  1  0.28727379  0.38182667  0.33927690  1
  S  S125  1  0.27092535  0.35552443  0.66010686  1
  S  S126  1  0.37016240  0.71196249  0.33805051  1
  S  S127  1  0.35279349  0.72592974  0.66045363  1
  S  S128  1  0.61692756  0.19055317  0.65964893  1
  S  S129  1  0.64775969  0.22205219  0.33950385  1
  S  S130  1  0.80996775  0.61504489  0.66193361  1
  S  S131  1  0.78996698  0.65412012  0.34047839  1
  I  I132  1  0.23777822  0.89615722  0.00624948  1
  I  I133  1  0.25788048  0.52730906  0.98836589  1
  I  I134  1  0.72394677  0.04828193  0.98629900  1
  I  I135  1  0.76148143  0.42945761  0.03346407  1
  I  I136  1  0.05953341  0.22153023  0.04088964  1
  I  I137  1  0.95211547  0.71763319  0.98517427  1
  I  I138  1  0.44741309  0.25532134  0.01982789  1
  I  I139  1  0.56399607  0.74938032  0.96631424  1
  I  I140  1  0.99341614  0.99736184  0.83465989  1
  I  I141  1  0.92311782  0.96089705  0.16985900  1
  I  I142  1  0.90660135  0.40461154  0.83337308  1
  I  I143  1  0.02505875  0.49253374  0.17123039  1
  I  I144  1  0.41858184  0.08050348  0.82894385  1
  I  I145  1  0.48034041  0.98950997  0.16998351  1
  I  I146  1  0.51892587  0.48846502  0.79873847  1
  I  I147  1  0.50603403  0.52814023  0.14287348  1
  N  N148  1  0.29954652  0.32901276  0.85215868  1
  N  N149  1  0.25064840  0.33015960  0.15578284  1
  N  N150  1  0.33667850  0.70221060  0.85355065  1
  N  N151  1  0.32830610  0.74345078  0.15558933  1
  N  N152  1  0.68974524  0.17753155  0.15063097  1
  N  N153  1  0.68283155  0.22593967  0.84267439  1
  N  N154  1  0.83560185  0.69496507  0.15384182  1
  N  N155  1  0.78216141  0.66609170  0.84452539  1
