# generated using pymatgen
data_H18PbC13S(I2N)2
_symmetry_space_group_name_H-M   'P 1'
_cell_length_a   13.03818619
_cell_length_b   12.87223115
_cell_length_c   16.81079512
_cell_angle_alpha   93.27095156
_cell_angle_beta   93.58432369
_cell_angle_gamma   90.29004173
_symmetry_Int_Tables_number   1
_chemical_formula_structural   H18PbC13S(I2N)2
_chemical_formula_sum   'H72 Pb4 C52 S4 I16 N8'
_cell_volume   2811.15318056
_cell_formula_units_Z   4
loop_
 _symmetry_equiv_pos_site_id
 _symmetry_equiv_pos_as_xyz
  1  'x, y, z'
loop_
 _atom_site_type_symbol
 _atom_site_label
 _atom_site_symmetry_multiplicity
 _atom_site_fract_x
 _atom_site_fract_y
 _atom_site_fract_z
 _atom_site_occupancy
  H  H0  1  0.41611341  0.17743677  0.76960740  1
  H  H1  1  0.31059409  0.09808569  0.78890705  1
  H  H2  1  0.37369551  0.17623540  0.86799112  1
  H  H3  1  0.31118395  0.33688275  0.80763168  1
  H  H4  1  0.12935043  0.31161573  0.82253209  1
  H  H5  1  0.20143810  0.25084451  0.89172701  1
  H  H6  1  0.14262770  0.18001828  0.81568767  1
  H  H7  1  0.30143142  0.42619561  0.69642162  1
  H  H8  1  0.26941619  0.43737885  0.55025828  1
  H  H9  1  0.11684480  0.44818863  0.45543979  1
  H  H10  1  0.10166043  0.18767792  0.19925242  1
  H  H11  1  0.21358748  0.12514446  0.23382935  1
  H  H12  1  0.31075215  0.27506163  0.18503444  1
  H  H13  1  0.24427680  0.19885778  0.11541241  1
  H  H14  1  0.20289728  0.31857996  0.14228074  1
  H  H15  1  0.24415507  0.14620073  0.38498827  1
  H  H16  1  0.16501951  0.11801556  0.53041501  1
  H  H17  1  0.19907444  0.10604232  0.67522448  1
  H  H18  1  0.16707038  0.59197841  0.75032075  1
  H  H19  1  0.09290895  0.70003345  0.78136923  1
  H  H20  1  0.17070656  0.63429006  0.85254980  1
  H  H21  1  0.32875043  0.69194817  0.79780730  1
  H  H22  1  0.32091416  0.87169255  0.83142613  1
  H  H23  1  0.24349094  0.80881804  0.89016967  1
  H  H24  1  0.19095457  0.87543060  0.81553939  1
  H  H25  1  0.41931640  0.70306683  0.68755480  1
  H  H26  1  0.43164840  0.73464455  0.54445356  1
  H  H27  1  0.43438400  0.90540728  0.46355275  1
  H  H28  1  0.17640383  0.88827931  0.20434272  1
  H  H29  1  0.12985417  0.76557758  0.22758756  1
  H  H30  1  0.28635802  0.68956264  0.17168080  1
  H  H31  1  0.21249650  0.75610256  0.10724844  1
  H  H32  1  0.32394561  0.80615362  0.14706367  1
  H  H33  1  0.15112307  0.74148659  0.37881849  1
  H  H34  1  0.11744401  0.83854206  0.53193594  1
  H  H35  1  0.10521781  0.80623978  0.67404547  1
  H  H36  1  0.84146258  0.09567761  0.23113475  1
  H  H37  1  0.90923340  0.20918438  0.20893391  1
  H  H38  1  0.83318337  0.13854568  0.13269162  1
  H  H39  1  0.67452155  0.18356836  0.19592711  1
  H  H40  1  0.68087329  0.37414298  0.18570126  1
  H  H41  1  0.72558208  0.30319035  0.10953069  1
  H  H42  1  0.80883851  0.36809072  0.17562636  1
  H  H43  1  0.58327236  0.19363148  0.30265611  1
  H  H44  1  0.56709255  0.22328841  0.44767819  1
  H  H45  1  0.53789997  0.35366779  0.54486837  1
  H  H46  1  0.80158709  0.39693880  0.80031738  1
  H  H47  1  0.86041240  0.27864908  0.77328732  1
  H  H48  1  0.70784910  0.19152772  0.82615769  1
  H  H49  1  0.78255248  0.26496378  0.89223259  1
  H  H50  1  0.66803391  0.30799826  0.85947528  1
  H  H51  1  0.85261658  0.27124858  0.61940209  1
  H  H52  1  0.87695699  0.34487651  0.47444782  1
  H  H53  1  0.89371170  0.31277944  0.32999455  1
  H  H54  1  0.90810171  0.84448899  0.24181055  1
  H  H55  1  0.79462752  0.91157220  0.21184555  1
  H  H56  1  0.85898515  0.83244699  0.14116890  1
  H  H57  1  0.81697094  0.67347521  0.20592887  1
  H  H58  1  0.63215807  0.67424485  0.18179975  1
  H  H59  1  0.69162607  0.73314401  0.11097451  1
  H  H60  1  0.63284730  0.80656013  0.17877366  1
  H  H61  1  0.80129576  0.58137545  0.31392906  1
  H  H62  1  0.76578091  0.56754683  0.45606542  1
  H  H63  1  0.61082785  0.55617293  0.53671026  1
  H  H64  1  0.61812778  0.81972882  0.79389375  1
  H  H65  1  0.74105844  0.86533950  0.77371011  1
  H  H66  1  0.80930601  0.69934424  0.82592392  1
  H  H67  1  0.74923678  0.77877744  0.89100386  1
  H  H68  1  0.69296806  0.66838006  0.85160530  1
  H  H69  1  0.75233692  0.85398366  0.62029143  1
  H  H70  1  0.66547922  0.88629818  0.46774563  1
  H  H71  1  0.70136831  0.90033492  0.32617212  1
  Pb  Pb72  1  0.99525979  -0.00075790  0.96985029  1
  Pb  Pb73  1  0.99079227  0.50498978  0.99192675  1
  Pb  Pb74  1  0.51272991  0.00468877  0.00454025  1
  Pb  Pb75  1  0.48191054  0.50041797  0.01432456  1
  C  C76  1  0.34810270  0.17365856  0.80444333  1
  C  C77  1  0.27637455  0.26205257  0.78514962  1
  C  C78  1  0.25019723  0.26663892  0.69650568  1
  C  C79  1  0.26998890  0.35914337  0.66007061  1
  C  C80  1  0.25223190  0.36530802  0.57809867  1
  C  C81  1  0.21308470  0.27941694  0.53006690  1
  C  C82  1  0.18821619  0.29265548  0.44464953  1
  C  C83  1  0.14198998  0.38221735  0.41863551  1
  C  C84  1  0.17876525  0.25983368  0.30587716  1
  C  C85  1  0.17938342  0.20198431  0.22694548  1
  C  C86  1  0.20848218  0.22204035  0.37896196  1
  C  C87  1  0.19550512  0.18583272  0.56638640  1
  C  C88  1  0.21415668  0.17953792  0.64857931  1
  C  C89  1  0.16681519  0.66074123  0.79162457  1
  C  C90  1  0.25713812  0.73022477  0.77800082  1
  C  C91  1  0.26271586  0.75467182  0.69146582  1
  C  C92  1  0.35354905  0.73419623  0.65363222  1
  C  C93  1  0.36040076  0.75174220  0.57318516  1
  C  C94  1  0.27612449  0.79049766  0.52817701  1
  C  C95  1  0.28827438  0.81637265  0.44486071  1
  C  C96  1  0.37146032  0.87363508  0.42398534  1
  C  C97  1  0.25500505  0.82210753  0.30640468  1
  C  C98  1  0.20019425  0.81236754  0.22601060  1
  C  C99  1  0.22128113  0.78737966  0.37654447  1
  C  C100  1  0.18389785  0.80824031  0.56565800  1
  C  C101  1  0.17734294  0.79051232  0.64622779  1
  C  C102  1  0.83734746  0.16482493  0.19606102  1
  C  C103  1  0.74417703  0.22805301  0.21703865  1
  C  C104  1  0.73807927  0.25376360  0.30549406  1
  C  C105  1  0.64679800  0.22925187  0.34007640  1
  C  C106  1  0.63782184  0.24583464  0.42161684  1
  C  C107  1  0.71932545  0.28884287  0.47181203  1
  C  C108  1  0.70194784  0.30810517  0.55724080  1
  C  C109  1  0.60638055  0.33740277  0.58209164  1
  C  C110  1  0.72982324  0.31277427  0.69665173  1
  C  C111  1  0.78568333  0.31665622  0.77677803  1
  C  C112  1  0.77288639  0.29462847  0.62417587  1
  C  C113  1  0.81175020  0.31208276  0.43722443  1
  C  C114  1  0.82093162  0.29451974  0.35516047  1
  C  C115  1  0.83717841  0.83877703  0.20324207  1
  C  C116  1  0.77553006  0.74469390  0.22311591  1
  C  C117  1  0.75256061  0.74092924  0.30989156  1
  C  C118  1  0.77048568  0.64791294  0.34754965  1
  C  C119  1  0.75048905  0.64011019  0.42718197  1
  C  C120  1  0.71155463  0.72514252  0.47161811  1
  C  C121  1  0.68672426  0.71093365  0.55457298  1
  C  C122  1  0.63833226  0.62173339  0.57587986  1
  C  C123  1  0.68426125  0.74110654  0.69304955  1
  C  C124  1  0.69345758  0.79480683  0.77365103  1
  C  C125  1  0.71240710  0.77972783  0.62269765  1
  C  C126  1  0.69568806  0.81923232  0.43430715  1
  C  C127  1  0.71587523  0.82699934  0.35430651  1
  S  S128  1  0.12308598  0.38075043  0.31738761  1
  S  S129  1  0.36761846  0.89350603  0.32432408  1
  S  S130  1  0.60264814  0.34836042  0.68330559  1
  S  S131  1  0.62357036  0.62160087  0.67600038  1
  I  I132  1  0.27531785  0.04695666  0.01714561  1
  I  I133  1  0.24494781  0.46198412  0.04030687  1
  I  I134  1  0.76201635  0.94123017  0.97723777  1
  I  I135  1  0.74737264  0.52627107  0.96491595  1
  I  I136  1  0.94899626  0.24330607  0.98519459  1
  I  I137  1  0.06490853  0.74526332  -0.00516772  1
  I  I138  1  0.56525362  0.24741373  0.99979117  1
  I  I139  1  0.46157118  0.74641911  0.02082378  1
  I  I140  1  0.04332012  0.00423385  0.77862492  1
  I  I141  1  0.02844740  0.99883681  0.14793297  1
  I  I142  1  0.01239725  0.45437321  0.80494265  1
  I  I143  1  0.95124251  0.50529705  0.17671143  1
  I  I144  1  0.48463806  0.95427423  0.81666800  1
  I  I145  1  0.55635158  0.99174542  0.19138350  1
  I  I146  1  0.45843534  0.50798314  0.83200412  1
  I  I147  1  0.53976844  0.50544684  0.20952374  1
  N  N148  1  0.18125214  0.25025861  0.83146227  1
  N  N149  1  0.23760405  0.25264312  0.16442673  1
  N  N150  1  0.25253484  0.82806670  0.83224333  1
  N  N151  1  0.26047486  0.76291056  0.15989070  1
  N  N152  1  0.74048570  0.32453222  0.16954815  1
  N  N153  1  0.73138458  0.26677340  0.84160360  1
  N  N154  1  0.67650099  0.73924526  0.17047364  1
  N  N155  1  0.73913148  0.73018990  0.83849647  1
