# generated using pymatgen
data_H16PbC14S2(I2N)2
_symmetry_space_group_name_H-M   'P 1'
_cell_length_a   12.25234269
_cell_length_b   12.16622440
_cell_length_c   18.86071104
_cell_angle_alpha   90.09324619
_cell_angle_beta   90.03584061
_cell_angle_gamma   89.86903821
_symmetry_Int_Tables_number   1
_chemical_formula_structural   H16PbC14S2(I2N)2
_chemical_formula_sum   'H64 Pb4 C56 S8 I16 N8'
_cell_volume   2811.45557831
_cell_formula_units_Z   4
loop_
 _symmetry_equiv_pos_site_id
 _symmetry_equiv_pos_as_xyz
  1  'x, y, z'
loop_
 _atom_site_type_symbol
 _atom_site_label
 _atom_site_symmetry_multiplicity
 _atom_site_fract_x
 _atom_site_fract_y
 _atom_site_fract_z
 _atom_site_occupancy
  H  H0  1  0.24359824  0.31633879  0.90356767  1
  H  H1  1  0.19539497  0.37652886  0.83017455  1
  H  H2  1  0.16347779  0.24741017  0.84900138  1
  H  H3  1  0.34333892  0.17943365  0.83332187  1
  H  H4  1  0.39290151  0.31660629  0.82540987  1
  H  H5  1  0.23619270  0.09482782  0.73369580  1
  H  H6  1  0.20606817  0.08924409  0.60395764  1
  H  H7  1  0.20043085  0.41510200  0.48638073  1
  H  H8  1  0.09335366  0.26453044  0.17628077  1
  H  H9  1  0.18758485  0.15465946  0.17058258  1
  H  H10  1  0.33127643  0.29589438  0.15177736  1
  H  H11  1  0.22819174  0.30173898  0.09280347  1
  H  H12  1  0.23468132  0.39423251  0.15806999  1
  H  H13  1  0.25599288  0.07924964  0.28777883  1
  H  H14  1  0.34670429  0.41284132  0.58459954  1
  H  H15  1  0.37600647  0.41823212  0.71457471  1
  H  H16  1  0.31197176  0.75211637  0.90414899  1
  H  H17  1  0.37744697  0.80051753  0.83238475  1
  H  H18  1  0.24949241  0.83606906  0.84854873  1
  H  H19  1  0.18027843  0.65424067  0.83245322  1
  H  H20  1  0.31632767  0.60412794  0.82431536  1
  H  H21  1  0.09548175  0.76213633  0.73376154  1
  H  H22  1  0.08920677  0.79291039  0.60403341  1
  H  H23  1  0.41309101  0.79895660  0.48626460  1
  H  H24  1  0.26607947  0.90702414  0.17582426  1
  H  H25  1  0.15418802  0.81551756  0.17102025  1
  H  H26  1  0.28947976  0.66612482  0.15355508  1
  H  H27  1  0.29763021  0.76759993  0.09295149  1
  H  H28  1  0.39041832  0.76023666  0.15787049  1
  H  H29  1  0.07989782  0.74535296  0.28760285  1
  H  H30  1  0.41234002  0.65415323  0.58384392  1
  H  H31  1  0.41913942  0.62565833  0.71383718  1
  H  H32  1  0.68371680  0.22986326  0.09400852  1
  H  H33  1  0.61896017  0.28478114  0.16441825  1
  H  H34  1  0.74397798  0.32437714  0.14361562  1
  H  H35  1  0.82388617  0.14954147  0.16858600  1
  H  H36  1  0.69155496  0.09229912  0.17772981  1
  H  H37  1  0.90531711  0.25950153  0.26675108  1
  H  H38  1  0.90984648  0.29420407  0.39583319  1
  H  H39  1  0.58417013  0.29587258  0.51536504  1
  H  H40  1  0.73043183  0.39765614  0.82631514  1
  H  H41  1  0.84479131  0.30776907  0.83057000  1
  H  H42  1  0.72178603  0.15770383  0.85373175  1
  H  H43  1  0.69212015  0.26132108  0.90781110  1
  H  H44  1  0.61200156  0.23462418  0.83820326  1
  H  H45  1  0.91986619  0.24129305  0.71256364  1
  H  H46  1  0.58866235  0.15238243  0.41629468  1
  H  H47  1  0.58403023  0.11922861  0.28659885  1
  H  H48  1  0.76409499  0.69187848  0.09358377  1
  H  H49  1  0.71314628  0.62203607  0.16318621  1
  H  H50  1  0.67265148  0.75015861  0.14723643  1
  H  H51  1  0.84940114  0.82607316  0.16873114  1
  H  H52  1  0.90376849  0.69109244  0.17655543  1
  H  H53  1  0.73975045  0.90742846  0.26677963  1
  H  H54  1  0.70612067  0.91202937  0.39598619  1
  H  H55  1  0.70242369  0.58431591  0.51400788  1
  H  H56  1  0.60234612  0.72775442  0.82575458  1
  H  H57  1  0.68926555  0.84387720  0.83023909  1
  H  H58  1  0.84207906  0.71813129  0.84935440  1
  H  H59  1  0.74136656  0.69547021  0.90694062  1
  H  H60  1  0.76128197  0.60935456  0.83896076  1
  H  H61  1  0.75876083  0.91993774  0.71277903  1
  H  H62  1  0.84853432  0.58859799  0.41583469  1
  H  H63  1  0.88018674  0.58374130  0.28597260  1
  Pb  Pb64  1  0.99189056  0.00345556  0.99514552  1
  Pb  Pb65  1  1.00224686  0.49803501  0.99600709  1
  Pb  Pb66  1  0.48635750  0.99636527  0.99650356  1
  Pb  Pb67  1  0.50374141  0.50669489  0.01012553  1
  C  C68  1  0.32572653  0.26109223  0.81139883  1
  C  C69  1  0.30734935  0.25733004  0.73284232  1
  C  C70  1  0.26072659  0.16447553  0.70095910  1
  C  C71  1  0.24429395  0.16115437  0.62797510  1
  C  C72  1  0.27419834  0.25063395  0.58489655  1
  C  C73  1  0.25688306  0.24866792  0.50808920  1
  C  C74  1  0.22181937  0.33432331  0.46558983  1
  C  C75  1  0.21338907  0.30159868  0.39369077  1
  C  C76  1  0.19903945  0.24541647  0.26727647  1
  C  C77  1  0.17678321  0.23895382  0.18996849  1
  C  C78  1  0.23653338  0.16024034  0.30896081  1
  C  C79  1  0.24369426  0.19187439  0.38117405  1
  C  C80  1  0.32108612  0.34365733  0.61731558  1
  C  C81  1  0.33723630  0.34675636  0.69031008  1
  C  C82  1  0.26130754  0.67222236  0.81068040  1
  C  C83  1  0.25777840  0.69199653  0.73237399  1
  C  C84  1  0.16491390  0.73840494  0.70082852  1
  C  C85  1  0.16118159  0.75502411  0.62787824  1
  C  C86  1  0.25021970  0.72553058  0.58462774  1
  C  C87  1  0.24794411  0.74285417  0.50788512  1
  C  C88  1  0.33296188  0.77781535  0.46540308  1
  C  C89  1  0.30053115  0.78659854  0.39359390  1
  C  C90  1  0.24464286  0.80230808  0.26737778  1
  C  C91  1  0.23828468  0.82418158  0.19002819  1
  C  C92  1  0.16011688  0.76468562  0.30896932  1
  C  C93  1  0.19152811  0.75668118  0.38108384  1
  C  C94  1  0.34344148  0.67925333  0.61675826  1
  C  C95  1  0.34698554  0.66303118  0.68970364  1
  C  C96  1  0.74169725  0.16467215  0.18969952  1
  C  C97  1  0.74336761  0.18921651  0.26761747  1
  C  C98  1  0.83510445  0.23730043  0.29935252  1
  C  C99  1  0.83801849  0.25598748  0.37217848  1
  C  C100  1  0.74899258  0.22690271  0.41552269  1
  C  C101  1  0.75093729  0.24468665  0.49240552  1
  C  C102  1  0.66521385  0.27670046  0.53563035  1
  C  C103  1  0.69764948  0.28372722  0.60764385  1
  C  C104  1  0.75438338  0.29522852  0.73411695  1
  C  C105  1  0.76055941  0.31563775  0.81167567  1
  C  C106  1  0.83941205  0.26098243  0.69157631  1
  C  C107  1  0.80753472  0.25566899  0.61942178  1
  C  C108  1  0.65705513  0.17841712  0.38333698  1
  C  C109  1  0.65442487  0.15995283  0.31050603  1
  C  C110  1  0.83332339  0.74336822  0.18939957  1
  C  C111  1  0.81038428  0.74456204  0.26746306  1
  C  C112  1  0.76260790  0.83705595  0.29937994  1
  C  C113  1  0.74436413  0.83974883  0.37219054  1
  C  C114  1  0.77368415  0.74993674  0.41524547  1
  C  C115  1  0.75578347  0.75149191  0.49205002  1
  C  C116  1  0.72241275  0.66543942  0.53470454  1
  C  C117  1  0.71502384  0.69779421  0.60674730  1
  C  C118  1  0.70295363  0.75392201  0.73331748  1
  C  C119  1  0.68309099  0.75914711  0.81087757  1
  C  C120  1  0.73857766  0.83934667  0.69141296  1
  C  C121  1  0.74429654  0.80775553  0.61913224  1
  C  C122  1  0.82212001  0.65736777  0.38294398  1
  C  C123  1  0.83995867  0.65484746  0.31006273  1
  S  S124  1  0.17163932  0.36473865  0.31632013  1
  S  S125  1  0.28097862  0.12834519  0.45932949  1
  S  S126  1  0.36331331  0.82859800  0.31637407  1
  S  S127  1  0.12848168  0.71921281  0.45920080  1
  S  S128  1  0.63473635  0.32101133  0.68606418  1
  S  S129  1  0.87104149  0.22206942  0.54063663  1
  S  S130  1  0.67637570  0.63428715  0.68463345  1
  S  S131  1  0.77948458  0.87168570  0.54081742  1
  I  I132  1  0.24162384  0.91622453  0.00244563  1
  I  I133  1  0.25558074  0.56071138  0.99359523  1
  I  I134  1  0.74058202  0.06559900  0.99919568  1
  I  I135  1  0.75447176  0.43067724  0.00423408  1
  I  I136  1  0.08381763  0.24736225  0.00181586  1
  I  I137  1  0.92910381  0.74711346  0.00070730  1
  I  I138  1  0.44753321  0.25267953  0.00784222  1
  I  I139  1  0.57728258  0.75223112  0.99496659  1
  I  I140  1  0.01437621  0.01323272  0.82338299  1
  I  I141  1  0.99710969  0.00242250  0.16420460  1
  I  I142  1  0.00243193  0.49955245  0.82425112  1
  I  I143  1  0.02720494  0.49961808  0.16602231  1
  I  I144  1  0.49246105  0.99630475  0.82541119  1
  I  I145  1  0.50675675  0.95859650  0.16642809  1
  I  I146  1  0.52547988  0.50043844  0.84017841  1
  I  I147  1  0.50552090  0.49857336  0.18187195  1
  N  N148  1  0.22668734  0.30357059  0.85037483  1
  N  N149  1  0.24931235  0.31246880  0.14606101  1
  N  N150  1  0.30331625  0.77073038  0.85078738  1
  N  N151  1  0.30867117  0.74765431  0.14631653  1
  N  N152  1  0.69354287  0.25679183  0.14602777  1
  N  N153  1  0.69205801  0.23711412  0.85495510  1
  N  N154  1  0.73958425  0.69826636  0.14624661  1
  N  N155  1  0.76269096  0.69105231  0.85357768  1
