# generated using pymatgen
data_H20PbC18S(I2N)2
_symmetry_space_group_name_H-M   'P 1'
_cell_length_a   12.53888761
_cell_length_b   12.40271826
_cell_length_c   20.80137467
_cell_angle_alpha   90.97015959
_cell_angle_beta   90.92772306
_cell_angle_gamma   89.27164224
_symmetry_Int_Tables_number   1
_chemical_formula_structural   H20PbC18S(I2N)2
_chemical_formula_sum   'H80 Pb4 C72 S4 I16 N8'
_cell_volume   3233.81460095
_cell_formula_units_Z   4
loop_
 _symmetry_equiv_pos_site_id
 _symmetry_equiv_pos_as_xyz
  1  'x, y, z'
loop_
 _atom_site_type_symbol
 _atom_site_label
 _atom_site_symmetry_multiplicity
 _atom_site_fract_x
 _atom_site_fract_y
 _atom_site_fract_z
 _atom_site_occupancy
  H  H0  1  0.27083532  0.38190379  0.84323453  1
  H  H1  1  0.31971879  0.26112864  0.86491934  1
  H  H2  1  0.24237351  0.33307699  0.91434876  1
  H  H3  1  0.08880663  0.31346256  0.85068661  1
  H  H4  1  0.14464992  0.18239969  0.86098237  1
  H  H5  1  0.12124119  0.41261588  0.74550767  1
  H  H6  1  0.12984875  0.38971312  0.62752007  1
  H  H7  1  0.11636215  0.03837646  0.55040329  1
  H  H8  1  0.14783875  0.04941532  0.42626220  1
  H  H9  1  0.18136550  0.41040893  0.38460608  1
  H  H10  1  0.22645604  0.45324656  0.27268238  1
  H  H11  1  0.32075963  0.40120847  0.17294236  1
  H  H12  1  0.37627650  0.27021956  0.16288271  1
  H  H13  1  0.19869047  0.20436241  0.13546663  1
  H  H14  1  0.14558727  0.32863015  0.14914263  1
  H  H15  1  0.23125035  0.31036610  0.08983180  1
  H  H16  1  0.34257434  0.12774623  0.24269446  1
  H  H17  1  0.29803598  0.08481062  0.35478719  1
  H  H18  1  0.21134582  0.05323562  0.65091491  1
  H  H19  1  0.19987453  0.07605284  0.76857150  1
  H  H20  1  0.37300362  0.71625556  0.83419673  1
  H  H21  1  0.24978007  0.67752166  0.85608921  1
  H  H22  1  0.33172042  0.74580579  0.90769018  1
  H  H23  1  0.31535101  0.90704497  0.85100145  1
  H  H24  1  0.18377959  0.85729997  0.86107742  1
  H  H25  1  0.40531472  0.88079098  0.74305616  1
  H  H26  1  0.37817260  0.87066927  0.62504205  1
  H  H27  1  0.02352118  0.86052385  0.55196241  1
  H  H28  1  0.03888393  0.83353569  0.42684601  1
  H  H29  1  0.40256666  0.82209857  0.38609957  1
  H  H30  1  0.44980205  0.77569610  0.27399680  1
  H  H31  1  0.40390962  0.67320844  0.17227229  1
  H  H32  1  0.27337981  0.62350502  0.15922194  1
  H  H33  1  0.21242983  0.80822902  0.13951444  1
  H  H34  1  0.33625500  0.85504034  0.15330522  1
  H  H35  1  0.31536162  0.77155796  0.09123688  1
  H  H36  1  0.13357272  0.65206166  0.23924508  1
  H  H37  1  0.08682211  0.69638231  0.35172832  1
  H  H38  1  0.04954910  0.78359996  0.65228606  1
  H  H39  1  0.07682060  0.79761228  0.76995505  1
  H  H40  1  0.63423082  0.19787190  0.16037820  1
  H  H41  1  0.75517459  0.15446416  0.13896799  1
  H  H42  1  0.68233545  0.22667478  0.08876468  1
  H  H43  1  0.70089860  0.38749343  0.14731872  1
  H  H44  1  0.83063693  0.32796259  0.14107906  1
  H  H45  1  0.59737183  0.36589000  0.25352901  1
  H  H46  1  0.61854532  0.37014049  0.37182403  1
  H  H47  1  0.96672946  0.38178048  0.45159371  1
  H  H48  1  0.95473429  0.34924856  0.57584517  1
  H  H49  1  0.59665692  0.32034352  0.61683827  1
  H  H50  1  0.55025171  0.26906299  0.72710016  1
  H  H51  1  0.59473509  0.16003407  0.82256954  1
  H  H52  1  0.72421211  0.10359179  0.83367887  1
  H  H53  1  0.78598488  0.27307984  0.87519628  1
  H  H54  1  0.66925499  0.33584075  0.85560038  1
  H  H55  1  0.67305354  0.24146410  0.91183586  1
  H  H56  1  0.87090578  0.14951292  0.75905263  1
  H  H57  1  0.91758337  0.20059954  0.64870478  1
  H  H58  1  0.95106061  0.28249118  0.35316641  1
  H  H59  1  0.92977350  0.28058898  0.23493981  1
  H  H60  1  0.80798051  0.63024774  0.16400334  1
  H  H61  1  0.83710015  0.75196995  0.13727094  1
  H  H62  1  0.77004173  0.66573776  0.09056090  1
  H  H63  1  0.61302583  0.68092026  0.14708456  1
  H  H64  1  0.65887362  0.81578470  0.13885990  1
  H  H65  1  0.63310262  0.58789135  0.25398979  1
  H  H66  1  0.63113656  0.61365912  0.37198655  1
  H  H67  1  0.61383387  0.96664828  0.44891103  1
  H  H68  1  0.64756235  0.95474989  0.57388785  1
  H  H69  1  0.68351884  0.59321210  0.61473490  1
  H  H70  1  0.73561792  0.54519224  0.72572707  1
  H  H71  1  0.84454661  0.59105479  0.82455379  1
  H  H72  1  0.89210937  0.72395831  0.83752827  1
  H  H73  1  0.70564610  0.78044128  0.86126434  1
  H  H74  1  0.66803817  0.65224838  0.85196163  1
  H  H75  1  0.75571143  0.68433830  0.91061337  1
  H  H76  1  0.85148075  0.86756859  0.75993256  1
  H  H77  1  0.80072157  0.91540728  0.64849598  1
  H  H78  1  0.71421981  0.94757247  0.35022288  1
  H  H79  1  0.71431273  0.92187515  0.23218064  1
  Pb  Pb80  1  0.00232528  1.00728166  0.00352764  1
  Pb  Pb81  1  0.02003726  0.51617576  0.99898783  1
  Pb  Pb82  1  0.51092178  0.98757341  -0.00125602  1
  Pb  Pb83  1  0.51205786  0.49180701  0.98412267  1
  C  C84  1  0.15485781  0.25957226  0.83698726  1
  C  C85  1  0.16222869  0.24635963  0.76534139  1
  C  C86  1  0.14241915  0.33394096  0.72474396  1
  C  C87  1  0.14709418  0.32099548  0.65829160  1
  C  C88  1  0.17080288  0.21958029  0.63029308  1
  C  C89  1  0.17411610  0.20210269  0.56073271  1
  C  C90  1  0.14813549  0.10858887  0.52714063  1
  C  C91  1  0.16511919  0.11451293  0.46048731  1
  C  C92  1  0.20385456  0.21322053  0.44205937  1
  C  C93  1  0.23354267  0.24353654  0.37725553  1
  C  C94  1  0.21655468  0.34813029  0.35358476  1
  C  C95  1  0.24147855  0.37205091  0.29043061  1
  C  C96  1  0.28418654  0.29219683  0.24944146  1
  C  C97  1  0.30654029  0.31539054  0.18055377  1
  C  C98  1  0.30489339  0.18899256  0.27345282  1
  C  C99  1  0.28001454  0.16489989  0.33637933  1
  C  C100  1  0.19072217  0.13207636  0.67133015  1
  C  C101  1  0.18625732  0.14532024  0.73776216  1
  C  C102  1  0.25929643  0.84394026  0.83604155  1
  C  C103  1  0.24288422  0.83909142  0.76440205  1
  C  C104  1  0.32737659  0.85892599  0.72297367  1
  C  C105  1  0.31220592  0.85261201  0.65660062  1
  C  C106  1  0.21178131  0.82616565  0.62991380  1
  C  C107  1  0.19251997  0.81978497  0.56068121  1
  C  C108  1  0.09659539  0.83588270  0.52790507  1
  C  C109  1  0.10470128  0.82135438  0.46083531  1
  C  C110  1  0.20681760  0.79320995  0.44153478  1
  C  C111  1  0.24003274  0.76538697  0.37644441  1
  C  C112  1  0.34325981  0.78498802  0.35404159  1
  C  C113  1  0.36972666  0.75928446  0.29081438  1
  C  C114  1  0.29391018  0.71340611  0.24864549  1
  C  C115  1  0.31908974  0.69130416  0.17955178  1
  C  C116  1  0.19198720  0.69103006  0.27119282  1
  C  C117  1  0.16552632  0.71624219  0.33423196  1
  C  C118  1  0.12742466  0.80619986  0.67185988  1
  C  C119  1  0.14281733  0.81283359  0.73806043  1
  C  C120  1  0.75286443  0.32133780  0.16390533  1
  C  C121  1  0.76243550  0.32164567  0.23589642  1
  C  C122  1  0.67497208  0.34628103  0.27525309  1
  C  C123  1  0.68682959  0.34888046  0.34203119  1
  C  C124  1  0.78656587  0.32685825  0.37147444  1
  C  C125  1  0.80324267  0.32674830  0.44122645  1
  C  C126  1  0.89645314  0.35100668  0.47486242  1
  C  C127  1  0.89014125  0.33363248  0.54151486  1
  C  C128  1  0.79188946  0.29619995  0.56012974  1
  C  C129  1  0.76103100  0.26587343  0.62485102  1
  C  C130  1  0.65704072  0.28280739  0.64782937  1
  C  C131  1  0.63110339  0.25424406  0.71011046  1
  C  C132  1  0.70797375  0.20779854  0.75125107  1
  C  C133  1  0.68013560  0.17586453  0.81819298  1
  C  C134  1  0.81133063  0.18930038  0.72831954  1
  C  C135  1  0.83751232  0.21779998  0.66617374  1
  C  C136  1  0.87366352  0.30229769  0.33157414  1
  C  C137  1  0.86162762  0.30000616  0.26507555  1
  C  C138  1  0.67382913  0.73897360  0.16298891  1
  C  C139  1  0.67531591  0.75301588  0.23483503  1
  C  C140  1  0.65263322  0.66660283  0.27504158  1
  C  C141  1  0.65126511  0.68109989  0.34159441  1
  C  C142  1  0.67233474  0.78274404  0.36995383  1
  C  C143  1  0.67297214  0.80144038  0.43957863  1
  C  C144  1  0.64671753  0.89579636  0.47270347  1
  C  C145  1  0.66483518  0.88957251  0.53972732  1
  C  C146  1  0.70496921  0.79027032  0.55877521  1
  C  C147  1  0.73678786  0.75831506  0.62376182  1
  C  C148  1  0.72104666  0.65338355  0.64626460  1
  C  C149  1  0.75023959  0.62654748  0.70892652  1
  C  C150  1  0.79593373  0.70353661  0.75072954  1
  C  C151  1  0.82448496  0.67675821  0.81910050  1
  C  C152  1  0.81357307  0.80764198  0.72822752  1
  C  C153  1  0.78470547  0.83463649  0.66566008  1
  C  C154  1  0.69523815  0.86887501  0.32922785  1
  C  C155  1  0.69661600  0.85419250  0.26285950  1
  S  S156  1  0.21857847  0.29862838  0.50839863  1
  S  S157  1  0.29279219  0.78676016  0.50729240  1
  S  S158  1  0.70714496  0.28340465  0.49372031  1
  S  S159  1  0.71930073  0.70462940  0.49271218  1
  I  I160  1  0.25507114  0.03230128  0.99710706  1
  I  I161  1  0.26207945  0.46544991  0.01504802  1
  I  I162  1  0.75070191  0.05458147  0.00262243  1
  I  I163  1  0.75649166  0.50763506  0.99221095  1
  I  I164  1  0.97966187  0.27149756  0.98204760  1
  I  I165  1  0.93568852  0.76497586  0.00159509  1
  I  I166  1  0.49087654  0.24087895  0.97316460  1
  I  I167  1  0.45144177  0.73900765  0.00793397  1
  I  I168  1  0.97766841  0.99822902  0.85087686  1
  I  I169  1  0.98902222  0.00519021  0.15985879  1
  I  I170  1  0.09398417  0.56079991  0.85168773  1
  I  I171  1  0.01256111  0.50219153  0.15469317  1
  I  I172  1  0.55322658  0.91684394  0.85169082  1
  I  I173  1  0.49169348  0.00669448  0.15603827  1
  I  I174  1  0.52033827  0.49995486  0.82634561  1
  I  I175  1  0.52031448  0.48403002  0.13484164  1
  N  N176  1  0.25359618  0.31123357  0.86626234  1
  N  N177  1  0.21424450  0.28576104  0.13629702  1
  N  N178  1  0.30652684  0.73917845  0.85983542  1
  N  N179  1  0.29230257  0.78788330  0.13858761  1
  N  N180  1  0.70273606  0.21941400  0.13695832  1
  N  N181  1  0.70515212  0.26285380  0.86796998  1
  N  N182  1  0.77842006  0.69427884  0.13767054  1
  N  N183  1  0.73308348  0.70062379  0.86355910  1
