# generated using pymatgen
data_H18PbC16S(I2N)2
_symmetry_space_group_name_H-M   'P 1'
_cell_length_a   12.57619185
_cell_length_b   12.35103952
_cell_length_c   18.85620955
_cell_angle_alpha   87.72701234
_cell_angle_beta   89.06460645
_cell_angle_gamma   88.77077744
_symmetry_Int_Tables_number   1
_chemical_formula_structural   H18PbC16S(I2N)2
_chemical_formula_sum   'H72 Pb4 C64 S4 I16 N8'
_cell_volume   2925.58798012
_cell_formula_units_Z   4
loop_
 _symmetry_equiv_pos_site_id
 _symmetry_equiv_pos_as_xyz
  1  'x, y, z'
loop_
 _atom_site_type_symbol
 _atom_site_label
 _atom_site_symmetry_multiplicity
 _atom_site_fract_x
 _atom_site_fract_y
 _atom_site_fract_z
 _atom_site_occupancy
  H  H0  1  0.20365172  0.30474443  0.84033614  1
  H  H1  1  0.29368838  0.28254283  0.90300641  1
  H  H2  1  0.24305359  0.17709332  0.86485568  1
  H  H3  1  0.41844895  0.20394752  0.81995485  1
  H  H4  1  0.38986723  0.34465827  0.80400277  1
  H  H5  1  0.35477962  0.06709331  0.73829403  1
  H  H6  1  0.31168291  0.03119719  0.61362177  1
  H  H7  1  0.26402390  0.10009051  0.49341177  1
  H  H8  1  0.14224351  0.08245998  0.40176128  1
  H  H9  1  0.13127304  0.08272830  0.26240789  1
  H  H10  1  0.14560056  0.21373857  0.15485800  1
  H  H11  1  0.17479364  0.35202365  0.16702782  1
  H  H12  1  0.34312427  0.17580396  0.16209328  1
  H  H13  1  0.30602507  0.25776722  0.09321127  1
  H  H14  1  0.36011006  0.31162776  0.16286046  1
  H  H15  1  0.20297701  0.44241380  0.45318615  1
  H  H16  1  0.24109698  0.47768986  0.57802560  1
  H  H17  1  0.29571937  0.40947653  0.69831523  1
  H  H18  1  0.28152584  0.80003749  0.84498118  1
  H  H19  1  0.24718285  0.70838983  0.90697325  1
  H  H20  1  0.15443936  0.76469678  0.85405782  1
  H  H21  1  0.19719441  0.58119622  0.82251497  1
  H  H22  1  0.33418631  0.61561955  0.81454016  1
  H  H23  1  0.06557836  0.65457829  0.73571961  1
  H  H24  1  0.03380288  0.69754112  0.60862403  1
  H  H25  1  0.10330946  0.74330998  0.48932978  1
  H  H26  1  0.08652491  0.87222642  0.39485715  1
  H  H27  1  0.08475944  0.88173551  0.25499522  1
  H  H28  1  0.21364991  0.85871085  0.14918888  1
  H  H29  1  0.34810874  0.82006482  0.16548702  1
  H  H30  1  0.16964835  0.66456840  0.15581240  1
  H  H31  1  0.26539197  0.69414178  0.09473714  1
  H  H32  1  0.29823552  0.63063538  0.17076661  1
  H  H33  1  0.43881183  0.79500672  0.45514476  1
  H  H34  1  0.47150442  0.75339185  0.58215853  1
  H  H35  1  0.40228940  0.70092263  0.70393523  1
  H  H36  1  0.69858947  0.30024737  0.15263556  1
  H  H37  1  0.74855706  0.21053765  0.09560655  1
  H  H38  1  0.82911429  0.27206764  0.14910958  1
  H  H39  1  0.79681240  0.08380921  0.18466693  1
  H  H40  1  0.65847973  0.11754788  0.19363003  1
  H  H41  1  0.92933161  0.15954557  0.26620339  1
  H  H42  1  0.96223558  0.20484359  0.39017970  1
  H  H43  1  0.89286474  0.25021361  0.50892273  1
  H  H44  1  0.89960830  0.38556241  0.59733439  1
  H  H45  1  0.90149948  0.39511525  0.73693806  1
  H  H46  1  0.78395758  0.35867151  0.84468391  1
  H  H47  1  0.64857115  0.32715292  0.83289350  1
  H  H48  1  0.82040251  0.15494526  0.83110134  1
  H  H49  1  0.75997362  0.19585499  0.90476563  1
  H  H50  1  0.68830872  0.13910245  0.84216201  1
  H  H51  1  0.55531309  0.29764157  0.54365541  1
  H  H52  1  0.52194220  0.25551868  0.41914619  1
  H  H53  1  0.59106456  0.20174400  0.30015431  1
  H  H54  1  0.70183143  0.71891085  0.16323876  1
  H  H55  1  0.78632297  0.73906523  0.09624825  1
  H  H56  1  0.73946681  0.84547367  0.13909043  1
  H  H57  1  0.91676205  0.81044549  0.17625694  1
  H  H58  1  0.89006174  0.66940016  0.18851918  1
  H  H59  1  0.85559936  0.94077733  0.26451070  1
  H  H60  1  0.80905767  0.97070006  0.39039073  1
  H  H61  1  0.75901320  0.89644728  0.50919178  1
  H  H62  1  0.61729746  0.90351622  0.59746305  1
  H  H63  1  0.60449278  0.90602458  0.73691518  1
  H  H64  1  0.63648013  0.78336238  0.84535340  1
  H  H65  1  0.67892171  0.64675620  0.83462870  1
  H  H66  1  0.83021090  0.83181643  0.83790307  1
  H  H67  1  0.79558543  0.74650854  0.90641742  1
  H  H68  1  0.85978683  0.69700670  0.83747552  1
  H  H69  1  0.70702524  0.55369649  0.54295028  1
  H  H70  1  0.74602130  0.52437935  0.41635258  1
  H  H71  1  0.79938333  0.59876899  0.29561725  1
  Pb  Pb72  1  -0.00430708  0.01019592  0.98055686  1
  Pb  Pb73  1  -0.00806911  0.50032258  0.01139039  1
  Pb  Pb74  1  0.49205793  0.99809832  0.01587985  1
  Pb  Pb75  1  0.49907308  0.50744888  0.00629610  1
  C  C76  1  0.35798354  0.26300678  0.80058838  1
  C  C77  1  0.32524376  0.24095521  0.72651222  1
  C  C78  1  0.32978306  0.13347733  0.70194858  1
  C  C79  1  0.30677044  0.11367044  0.63256150  1
  C  C80  1  0.27781519  0.20006124  0.58410844  1
  C  C81  1  0.25667303  0.18248426  0.51214864  1
  C  C82  1  0.23003217  0.26762574  0.46475846  1
  C  C83  1  0.20832664  0.24406544  0.39104788  1
  C  C84  1  0.16793494  0.14915179  0.36653566  1
  C  C85  1  0.16177518  0.14902745  0.29193662  1
  C  C86  1  0.19698709  0.24355180  0.25873313  1
  C  C87  1  0.19958557  0.26816800  0.18075529  1
  C  C88  1  0.22489992  0.37522954  0.48980381  1
  C  C89  1  0.24558766  0.39497331  0.55953137  1
  C  C90  1  0.27257613  0.30877849  0.60862899  1
  C  C91  1  0.29689526  0.32635661  0.68028150  1
  C  C92  1  0.25242486  0.64477460  0.80471155  1
  C  C93  1  0.23602291  0.67784184  0.72815031  1
  C  C94  1  0.13164086  0.67700356  0.70038592  1
  C  C95  1  0.11404819  0.70004106  0.62963516  1
  C  C96  1  0.19987599  0.72618968  0.58274166  1
  C  C97  1  0.18369867  0.74839673  0.50968581  1
  C  C98  1  0.26752970  0.77329111  0.46340371  1
  C  C99  1  0.24426749  0.79639311  0.38853235  1
  C  C100  1  0.15096324  0.84180871  0.36135964  1
  C  C101  1  0.14938062  0.84628983  0.28655993  1
  C  C102  1  0.24120659  0.80470726  0.25596802  1
  C  C103  1  0.26523817  0.80035635  0.17863603  1
  C  C104  1  0.37247937  0.77465673  0.49091868  1
  C  C105  1  0.39077444  0.75211996  0.56189040  1
  C  C106  1  0.30575228  0.72756151  0.61009261  1
  C  C107  1  0.32142612  0.70262375  0.68339217  1
  C  C108  1  0.73932248  0.14670726  0.20081885  1
  C  C109  1  0.75736639  0.17951732  0.27527516  1
  C  C110  1  0.86278901  0.18048080  0.30134079  1
  C  C111  1  0.88108867  0.20513944  0.37053233  1
  C  C112  1  0.79520520  0.23053350  0.41730178  1
  C  C113  1  0.81180222  0.25377266  0.48901463  1
  C  C114  1  0.72736912  0.27756516  0.53473801  1
  C  C115  1  0.74942157  0.30193587  0.60824233  1
  C  C116  1  0.83836613  0.35206347  0.63276934  1
  C  C117  1  0.83965885  0.35715789  0.70736852  1
  C  C118  1  0.75178977  0.31152339  0.74042070  1
  C  C119  1  0.73063514  0.30405491  0.81833219  1
  C  C120  1  0.62177204  0.27753881  0.50827067  1
  C  C121  1  0.60315630  0.25459640  0.43874963  1
  C  C122  1  0.68851063  0.23029836  0.39123194  1
  C  C123  1  0.67225290  0.20429145  0.31970594  1
  C  C124  1  0.85789873  0.75163622  0.19596010  1
  C  C125  1  0.82701914  0.76791783  0.27194931  1
  C  C126  1  0.83037037  0.87321307  0.29943035  1
  C  C127  1  0.80574508  0.88957908  0.36957585  1
  C  C128  1  0.77723089  0.80110623  0.41600922  1
  C  C129  1  0.75443901  0.81528397  0.48866075  1
  C  C130  1  0.72958120  0.72822805  0.53452142  1
  C  C131  1  0.70459391  0.74981591  0.60873185  1
  C  C132  1  0.65147709  0.84085152  0.63299189  1
  C  C133  1  0.64444426  0.84234902  0.70760935  1
  C  C134  1  0.69248556  0.75330864  0.74121662  1
  C  C135  1  0.69608566  0.73136615  0.81942689  1
  C  C136  1  0.72762724  0.62215912  0.50732217  1
  C  C137  1  0.74896008  0.60590470  0.43659715  1
  C  C138  1  0.77438781  0.69407878  0.38889461  1
  C  C139  1  0.79931542  0.68032392  0.31617880  1
  S  S140  1  0.23731168  0.33347889  0.32052677  1
  S  S141  1  0.33043945  0.76096728  0.32034706  1
  S  S142  1  0.66634444  0.26309804  0.67862912  1
  S  S143  1  0.74459735  0.66545183  0.67948090  1
  I  I144  1  0.23995517  0.02418551  0.96016359  1
  I  I145  1  0.24008295  0.46809036  0.98811372  1
  I  I146  1  0.73832218  0.99005252  0.02969308  1
  I  I147  1  0.73915475  0.57476541  0.01409993  1
  I  I148  1  0.91882275  0.26148136  0.98832346  1
  I  I149  1  1.01736357  0.75674106  0.00992696  1
  I  I150  1  0.49727918  0.25034358  0.99767539  1
  I  I151  1  0.41912632  0.74995514  1.00064083  1
  I  I152  1  0.95694049  0.98985529  0.81077775  1
  I  I153  1  0.01482742  0.02436932  0.14439721  1
  I  I154  1  0.97371329  0.52611557  0.84197985  1
  I  I155  1  0.00046301  0.48569853  0.18060751  1
  I  I156  1  0.53571549  0.01161980  0.84872814  1
  I  I157  1  0.46611777  0.01503356  0.18616335  1
  I  I158  1  0.51422620  0.51072718  0.83948133  1
  I  I159  1  0.46179650  0.48632018  0.18202506  1
  N  N160  1  0.26794596  0.25635261  0.85466390  1
  N  N161  1  0.30853170  0.25143088  0.14792525  1
  N  N162  1  0.23199122  0.73581213  0.85528797  1
  N  N163  1  0.24701483  0.69007088  0.14875591  1
  N  N164  1  0.75454078  0.23909805  0.14639866  1
  N  N165  1  0.75096822  0.19161325  0.85044607  1
  N  N166  1  0.76494471  0.76535667  0.14637728  1
  N  N167  1  0.80185526  0.75469855  0.85174060  1
