# generated using pymatgen
data_H18PbC16S2(I2N)2
_symmetry_space_group_name_H-M   'P 1'
_cell_length_a   12.25282936
_cell_length_b   12.09608372
_cell_length_c   20.47872527
_cell_angle_alpha   88.86871170
_cell_angle_beta   90.46604513
_cell_angle_gamma   89.39253321
_symmetry_Int_Tables_number   1
_chemical_formula_structural   H18PbC16S2(I2N)2
_chemical_formula_sum   'H72 Pb4 C64 S8 I16 N8'
_cell_volume   3034.30962457
_cell_formula_units_Z   4
loop_
 _symmetry_equiv_pos_site_id
 _symmetry_equiv_pos_as_xyz
  1  'x, y, z'
loop_
 _atom_site_type_symbol
 _atom_site_label
 _atom_site_symmetry_multiplicity
 _atom_site_fract_x
 _atom_site_fract_y
 _atom_site_fract_z
 _atom_site_occupancy
  H  H0  1  0.25517955  0.17465974  0.91035347  1
  H  H1  1  0.34300447  0.23999576  0.86304238  1
  H  H2  1  0.29889463  0.11751481  0.84085480  1
  H  H3  1  0.10865133  0.19938153  0.83824729  1
  H  H4  1  0.17120061  0.32949518  0.84998421  1
  H  H5  1  0.25762275  0.42700099  0.75835635  1
  H  H6  1  0.27943044  0.44569632  0.63871493  1
  H  H7  1  0.20304191  0.46942892  0.52878932  1
  H  H8  1  0.23281744  0.43501386  0.40429216  1
  H  H9  1  0.30892066  0.03283640  0.39357184  1
  H  H10  1  0.40442994  0.21516759  0.16293186  1
  H  H11  1  0.32243263  0.33288581  0.17906937  1
  H  H12  1  0.25989829  0.22503765  0.08946451  1
  H  H13  1  0.23689185  0.11445217  0.13657547  1
  H  H14  1  0.16306881  0.23036691  0.14745192  1
  H  H15  1  0.26939201  0.35823666  0.29842163  1
  H  H16  1  0.16482328  0.11163672  0.61660909  1
  H  H17  1  0.14598527  0.09331521  0.73624816  1
  H  H18  1  0.18837803  0.73593796  0.90800246  1
  H  H19  1  0.24151274  0.65497112  0.85285393  1
  H  H20  1  0.12160075  0.71491942  0.83765307  1
  H  H21  1  0.21055632  0.89803672  0.84144139  1
  H  H22  1  0.33763634  0.82641674  0.85220582  1
  H  H23  1  0.42388434  0.73200391  0.76081030  1
  H  H24  1  0.43928584  0.71165408  0.64121207  1
  H  H25  1  0.46937595  0.79800914  0.53165288  1
  H  H26  1  0.43314744  0.76313552  0.40727995  1
  H  H27  1  0.03686483  0.69686637  0.39366740  1
  H  H28  1  0.22309427  0.58482612  0.16936270  1
  H  H29  1  0.32899684  0.68074840  0.18173662  1
  H  H30  1  0.21175808  0.72661510  0.09085481  1
  H  H31  1  0.10132853  0.73579686  0.13760298  1
  H  H32  1  0.19973286  0.82790205  0.14598298  1
  H  H33  1  0.35606003  0.73070805  0.30149771  1
  H  H34  1  0.12490646  0.87133168  0.61455061  1
  H  H35  1  0.10906791  0.88939613  0.73426143  1
  H  H36  1  0.81267696  0.26123091  0.08696459  1
  H  H37  1  0.75379639  0.16823278  0.13695095  1
  H  H38  1  0.87708045  0.21910439  0.15562930  1
  H  H39  1  0.79216373  0.40675913  0.15755028  1
  H  H40  1  0.66420613  0.34183227  0.14671918  1
  H  H41  1  0.57652387  0.24191536  0.23721498  1
  H  H42  1  0.55811284  0.21707135  0.35653401  1
  H  H43  1  0.52602953  0.29788578  0.46439107  1
  H  H44  1  0.55901420  0.26760274  0.59025795  1
  H  H45  1  0.95832947  0.22239209  0.61220640  1
  H  H46  1  0.77612720  0.10730760  0.83672788  1
  H  H47  1  0.66136949  0.19479813  0.82129504  1
  H  H48  1  0.77051236  0.25311447  0.91183039  1
  H  H49  1  0.88194787  0.26565630  0.86777737  1
  H  H50  1  0.77715997  0.35127155  0.85331410  1
  H  H51  1  0.63208771  0.23063145  0.69791875  1
  H  H52  1  0.87377277  0.36517154  0.38405958  1
  H  H53  1  0.89245576  0.38685467  0.26427423  1
  H  H54  1  0.72373846  0.82175506  0.08837572  1
  H  H55  1  0.82364872  0.78226688  0.13950051  1
  H  H56  1  0.74786980  0.89525575  0.15523427  1
  H  H57  1  0.58400324  0.78455287  0.16015746  1
  H  H58  1  0.66483612  0.66430378  0.14952435  1
  H  H59  1  0.76237927  0.57786556  0.24161630  1
  H  H60  1  0.78790000  0.56068471  0.36100313  1
  H  H61  1  0.70153958  0.52695673  0.47004921  1
  H  H62  1  0.73394705  0.55940956  0.59485120  1
  H  H63  1  0.80757176  0.95941131  0.60792681  1
  H  H64  1  0.89839781  0.76820522  0.83828515  1
  H  H65  1  0.80607103  0.65951451  0.82277624  1
  H  H66  1  0.74379680  0.76796196  0.91124931  1
  H  H67  1  0.75328116  0.88610515  0.86964150  1
  H  H68  1  0.65772747  0.79589271  0.84968786  1
  H  H69  1  0.75701826  0.63629706  0.70222450  1
  H  H70  1  0.62635419  0.87611683  0.38445554  1
  H  H71  1  0.60239365  0.89346366  0.26462991  1
  Pb  Pb72  1  0.00610381  0.98532164  0.01485535  1
  Pb  Pb73  1  0.02184086  0.49451643  0.99516927  1
  Pb  Pb74  1  0.51044778  0.01502753  0.99284043  1
  Pb  Pb75  1  0.50785926  0.50019151  0.99604823  1
  C  C76  1  0.18102363  0.24882807  0.82715257  1
  C  C77  1  0.19970224  0.25928984  0.75518653  1
  C  C78  1  0.23685421  0.35821230  0.72706529  1
  C  C79  1  0.24845071  0.36874939  0.65968235  1
  C  C80  1  0.22227320  0.28079267  0.61840398  1
  C  C81  1  0.23196314  0.29362349  0.54759860  1
  C  C82  1  0.22260867  0.38869907  0.50900178  1
  C  C83  1  0.23784507  0.36980587  0.44168541  1
  C  C84  1  0.25962453  0.25988133  0.42789836  1
  C  C85  1  0.28242243  0.20999197  0.36524536  1
  C  C86  1  0.30607110  0.09867967  0.35663205  1
  C  C87  1  0.31148512  0.20478272  0.25204779  1
  C  C88  1  0.32587205  0.24231320  0.18306067  1
  C  C89  1  0.28520802  0.26978637  0.30415893  1
  C  C90  1  0.18700312  0.18074899  0.64736587  1
  C  C91  1  0.17637974  0.17026154  0.71472293  1
  C  C92  1  0.25752177  0.82426729  0.82813219  1
  C  C93  1  0.26634291  0.81333263  0.75553071  1
  C  C94  1  0.35899379  0.76379615  0.72858423  1
  C  C95  1  0.36772431  0.75260299  0.66135980  1
  C  C96  1  0.28402867  0.79124680  0.61897250  1
  C  C97  1  0.29529042  0.77899474  0.54846347  1
  C  C98  1  0.38896770  0.78183487  0.51110592  1
  C  C99  1  0.36922039  0.76433624  0.44393359  1
  C  C100  1  0.26013470  0.74702329  0.42925303  1
  C  C101  1  0.21053412  0.72165057  0.36668777  1
  C  C102  1  0.10106889  0.69788483  0.35733932  1
  C  C103  1  0.20462035  0.68586276  0.25458911  1
  C  C104  1  0.24084843  0.66842038  0.18645757  1
  C  C105  1  0.26903215  0.71542432  0.30654748  1
  C  C106  1  0.19053917  0.84002476  0.64646434  1
  C  C107  1  0.18182889  0.85076221  0.71377654  1
  C  C108  1  0.74494922  0.33280019  0.16978832  1
  C  C109  1  0.73615395  0.31478457  0.24235482  1
  C  C110  1  0.64190073  0.26855009  0.26943050  1
  C  C111  1  0.63121882  0.25541424  0.33668543  1
  C  C112  1  0.71438840  0.28955081  0.37941904  1
  C  C113  1  0.70100712  0.27741575  0.45008999  1
  C  C114  1  0.60599955  0.28146182  0.48628699  1
  C  C115  1  0.62383429  0.26596424  0.55421030  1
  C  C116  1  0.73273908  0.24941529  0.57083689  1
  C  C117  1  0.78115749  0.23141197  0.63526453  1
  C  C118  1  0.89232947  0.21953695  0.64729360  1
  C  C119  1  0.78599553  0.20853917  0.74913124  1
  C  C120  1  0.75045945  0.18916274  0.81758158  1
  C  C121  1  0.72062323  0.22505024  0.69485124  1
  C  C122  1  0.80901124  0.33596645  0.35198853  1
  C  C123  1  0.81957869  0.34841794  0.28457644  1
  C  C124  1  0.66293060  0.74553507  0.17232534  1
  C  C125  1  0.68173168  0.73735433  0.24474361  1
  C  C126  1  0.73355820  0.64403923  0.27281061  1
  C  C127  1  0.74719764  0.63391592  0.34021439  1
  C  C128  1  0.70902006  0.71695597  0.38184384  1
  C  C129  1  0.72177481  0.70368354  0.45266946  1
  C  C130  1  0.71816590  0.60760736  0.49048627  1
  C  C131  1  0.73417881  0.62547900  0.55795697  1
  C  C132  1  0.75113523  0.73544942  0.57264786  1
  C  C133  1  0.77473229  0.78380235  0.63568641  1
  C  C134  1  0.80161937  0.89366391  0.64466118  1
  C  C135  1  0.80375024  0.78745803  0.74923044  1
  C  C136  1  0.81740708  0.74907561  0.81841865  1
  C  C137  1  0.77546079  0.72384919  0.69680817  1
  C  C138  1  0.65781519  0.81110428  0.35325192  1
  C  C139  1  0.64403316  0.82083356  0.28584041  1
  S  S140  1  0.33405040  0.06880127  0.27737092  1
  S  S141  1  0.26033678  0.18063006  0.49940427  1
  S  S142  1  0.07104447  0.66493372  0.27866193  1
  S  S143  1  0.18250189  0.75387842  0.49947958  1
  S  S144  1  0.92191302  0.20037429  0.72820452  1
  S  S145  1  0.81256998  0.25330120  0.50129937  1
  S  S146  1  0.83023577  0.92197245  0.72412473  1
  S  S147  1  0.74554156  0.81644214  0.50175361  1
  I  I148  1  0.26091349  0.95072173  0.02478060  1
  I  I149  1  0.25965193  0.59698596  0.00224986  1
  I  I150  1  0.75840466  0.06407357  0.98499538  1
  I  I151  1  0.76095233  0.43792964  0.99872915  1
  I  I152  1  0.04732518  0.23800444  0.98643552  1
  I  I153  1  0.92518935  0.73751887  0.01335544  1
  I  I154  1  0.40504541  0.26230781  0.00258683  1
  I  I155  1  0.57032410  0.76056546  0.99965115  1
  I  I156  1  0.00353141  0.98101922  0.85916246  1
  I  I157  1  0.99468990  0.00161616  0.17156770  1
  I  I158  1  0.00719968  0.51038994  0.83709582  1
  I  I159  1  0.03983623  0.44353731  0.15020725  1
  I  I160  1  0.49946587  0.00780406  0.83469666  1
  I  I161  1  0.56534391  0.04310086  0.14661631  1
  I  I162  1  0.48738899  0.49881843  0.83796699  1
  I  I163  1  0.48999654  0.50085507  0.15158750  1
  N  N164  1  0.27460678  0.19090562  0.86196773  1
  N  N165  1  0.23992773  0.19969980  0.13692512  1
  N  N166  1  0.19787937  0.72772559  0.85801292  1
  N  N167  1  0.18479006  0.74555552  0.13788582  1
  N  N168  1  0.80152177  0.23881167  0.13564524  1
  N  N169  1  0.79779067  0.27034141  0.86473061  1
  N  N170  1  0.74608761  0.81578708  0.13750083  1
  N  N171  1  0.73797082  0.80278942  0.86453096  1
