# generated using pymatgen
data_H18PbC16S(I2N)2
_symmetry_space_group_name_H-M   'P 1'
_cell_length_a   12.36928796
_cell_length_b   12.32362965
_cell_length_c   19.02985948
_cell_angle_alpha   91.09272605
_cell_angle_beta   91.27878739
_cell_angle_gamma   90.00165174
_symmetry_Int_Tables_number   1
_chemical_formula_structural   H18PbC16S(I2N)2
_chemical_formula_sum   'H72 Pb4 C64 S4 I16 N8'
_cell_volume   2899.55739079
_cell_formula_units_Z   4
loop_
 _symmetry_equiv_pos_site_id
 _symmetry_equiv_pos_as_xyz
  1  'x, y, z'
loop_
 _atom_site_type_symbol
 _atom_site_label
 _atom_site_symmetry_multiplicity
 _atom_site_fract_x
 _atom_site_fract_y
 _atom_site_fract_z
 _atom_site_occupancy
  H  H0  1  0.16973670  0.18011559  0.84549270  1
  H  H1  1  0.26960824  0.17292886  0.90671481  1
  H  H2  1  0.26564833  0.08233604  0.84075243  1
  H  H3  1  0.40610704  0.20661980  0.82585007  1
  H  H4  1  0.31602913  0.31777578  0.83363390  1
  H  H5  1  0.22611348  0.38705698  0.73303013  1
  H  H6  1  0.19480989  0.38492641  0.60397103  1
  H  H7  1  0.29341458  0.40122564  0.49392935  1
  H  H8  1  0.28105522  0.46254477  0.35302968  1
  H  H9  1  0.24085156  0.39971595  0.23072157  1
  H  H10  1  0.11907080  0.13479572  0.18317204  1
  H  H11  1  0.14241801  0.26911919  0.15549272  1
  H  H12  1  0.24569673  0.11766546  0.09857136  1
  H  H13  1  0.32002952  0.22310763  0.12398390  1
  H  H14  1  0.32451298  0.11045937  0.17069218  1
  H  H15  1  0.17530147  0.07542528  0.30132250  1
  H  H16  1  0.34247453  0.06846013  0.58917616  1
  H  H17  1  0.37322632  0.07083797  0.71796450  1
  H  H18  1  0.18196384  0.83317668  0.84987324  1
  H  H19  1  0.16785116  0.73048596  0.90573793  1
  H  H20  1  0.08331054  0.74146231  0.83680870  1
  H  H21  1  0.21462496  0.59750375  0.82361890  1
  H  H22  1  0.31956035  0.69554337  0.83246962  1
  H  H23  1  0.38699251  0.77519898  0.73228726  1
  H  H24  1  0.38266572  0.80311887  0.60366918  1
  H  H25  1  0.39818214  0.70331235  0.49356591  1
  H  H26  1  0.46038464  0.71596000  0.35318556  1
  H  H27  1  0.39948418  0.75989106  0.23207215  1
  H  H28  1  0.14241593  0.89366961  0.18838544  1
  H  H29  1  0.27353864  0.85892081  0.15904379  1
  H  H30  1  0.11030359  0.76877520  0.10178014  1
  H  H31  1  0.21248918  0.68812806  0.12100048  1
  H  H32  1  0.10393648  0.68760693  0.17137490  1
  H  H33  1  0.07658985  0.82822990  0.30325742  1
  H  H34  1  0.06607381  0.65640389  0.58866664  1
  H  H35  1  0.07063981  0.62907211  0.71704062  1
  H  H36  1  0.79585810  0.35097624  0.14277973  1
  H  H37  1  0.85138687  0.25043382  0.09800605  1
  H  H38  1  0.90776349  0.29462673  0.17385657  1
  H  H39  1  0.79918954  0.11633974  0.17023690  1
  H  H40  1  0.68442602  0.20329470  0.16567537  1
  H  H41  1  0.61541953  0.28340526  0.26911710  1
  H  H42  1  0.61774084  0.30119545  0.39887020  1
  H  H43  1  0.60155178  0.19810935  0.50416456  1
  H  H44  1  0.53400733  0.21784602  0.64279488  1
  H  H45  1  0.58979671  0.27057557  0.76516318  1
  H  H46  1  0.84024438  0.40654604  0.81380133  1
  H  H47  1  0.71085977  0.36471920  0.84187486  1
  H  H48  1  0.87757912  0.28815553  0.90023721  1
  H  H49  1  0.78342137  0.19800406  0.87738192  1
  H  H50  1  0.89375683  0.20746790  0.82934372  1
  H  H51  1  0.91616126  0.33104994  0.70053279  1
  H  H52  1  0.93601891  0.15791644  0.40818346  1
  H  H53  1  0.93347374  0.14016599  0.27860203  1
  H  H54  1  0.65546502  0.80226490  0.14800908  1
  H  H55  1  0.75326184  0.84758126  0.09866728  1
  H  H56  1  0.72302977  0.91259594  0.17356970  1
  H  H57  1  0.89201072  0.79897100  0.17446775  1
  H  H58  1  0.80406821  0.68472450  0.16657985  1
  H  H59  1  0.71862846  0.61556812  0.26752293  1
  H  H60  1  0.69660056  0.61810675  0.39662898  1
  H  H61  1  0.80067128  0.59944845  0.50621326  1
  H  H62  1  0.78085780  0.53350082  0.64538533  1
  H  H63  1  0.73087129  0.59218142  0.76624003  1
  H  H64  1  0.60321247  0.85100417  0.80995017  1
  H  H65  1  0.63522140  0.71895665  0.83920187  1
  H  H66  1  0.72506914  0.87234010  0.90193170  1
  H  H67  1  0.81097450  0.77897239  0.87466964  1
  H  H68  1  0.80123409  0.89510264  0.83165086  1
  H  H69  1  0.67283864  0.91895405  0.69699908  1
  H  H70  1  0.84858525  0.93305180  0.41165404  1
  H  H71  1  0.87046256  0.93042338  0.28281421  1
  Pb  Pb72  1  0.98190475  1.00370216  0.98052043  1
  Pb  Pb73  1  0.00665265  0.49850236  0.00922984  1
  Pb  Pb74  1  0.48787267  0.98431006  0.00794973  1
  Pb  Pb75  1  0.49640914  0.49630364  0.00714347  1
  C  C76  1  0.32426333  0.23500113  0.81241205  1
  C  C77  1  0.30131648  0.22910560  0.73451598  1
  C  C78  1  0.25124382  0.31701250  0.70146121  1
  C  C79  1  0.23424723  0.31608823  0.62892901  1
  C  C80  1  0.26705371  0.22706487  0.58710142  1
  C  C81  1  0.25459322  0.23245202  0.51052946  1
  C  C82  1  0.26867016  0.32326575  0.47098300  1
  C  C83  1  0.25156432  0.30447966  0.39740011  1
  C  C84  1  0.25925009  0.37809498  0.34204035  1
  C  C85  1  0.23716137  0.34281963  0.27376796  1
  C  C86  1  0.20690179  0.23431147  0.25888183  1
  C  C87  1  0.17776474  0.20144533  0.18480879  1
  C  C88  1  0.19952953  0.15927267  0.31285706  1
  C  C89  1  0.22268214  0.19448908  0.38186201  1
  C  C90  1  0.31512942  0.13783460  0.62061484  1
  C  C91  1  0.33257515  0.13930327  0.69318383  1
  C  C92  1  0.23785280  0.68073365  0.81111433  1
  C  C93  1  0.22958931  0.70079586  0.73360733  1
  C  C94  1  0.31685799  0.74910562  0.70060433  1
  C  C95  1  0.31454022  0.76419561  0.62843144  1
  C  C96  1  0.22480221  0.73064687  0.58669887  1
  C  C97  1  0.22982273  0.74212538  0.51034613  1
  C  C98  1  0.32067184  0.72811612  0.47087209  1
  C  C99  1  0.30285385  0.74658677  0.39779373  1
  C  C100  1  0.37665639  0.73936643  0.34259859  1
  C  C101  1  0.34259787  0.76394731  0.27499176  1
  C  C102  1  0.23522552  0.79673531  0.26075058  1
  C  C103  1  0.20385036  0.82956379  0.18783836  1
  C  C104  1  0.15975181  0.80280021  0.31440983  1
  C  C105  1  0.19361244  0.77675610  0.38263097  1
  C  C106  1  0.13616473  0.68393376  0.62006825  1
  C  C107  1  0.13881493  0.66877117  0.69252840  1
  C  C108  1  0.76731237  0.19572330  0.18642124  1
  C  C109  1  0.77359864  0.21033759  0.26489576  1
  C  C110  1  0.68522709  0.25513872  0.29971871  1
  C  C111  1  0.68653806  0.26469799  0.37258368  1
  C  C112  1  0.77610001  0.22952862  0.41309444  1
  C  C113  1  0.77006218  0.23811220  0.48984525  1
  C  C114  1  0.67841769  0.22357319  0.52808490  1
  C  C115  1  0.69402110  0.24376164  0.60160466  1
  C  C116  1  0.61765995  0.23998176  0.65527716  1
  C  C117  1  0.64890348  0.26828829  0.72346999  1
  C  C118  1  0.75591994  0.30072958  0.74002033  1
  C  C119  1  0.78284703  0.33869682  0.81346248  1
  C  C120  1  0.83384659  0.30376010  0.68776233  1
  C  C121  1  0.80261702  0.27472523  0.61880492  1
  C  C122  1  0.86583320  0.18637601  0.37792657  1
  C  C123  1  0.86417170  0.17655961  0.30474905  1
  C  C124  1  0.81286589  0.76708395  0.18859143  1
  C  C125  1  0.79745725  0.77169703  0.26657346  1
  C  C126  1  0.74834462  0.68445161  0.29933160  1
  C  C127  1  0.73609172  0.68597714  0.37175670  1
  C  C128  1  0.77265087  0.77460834  0.41363791  1
  C  C129  1  0.76251273  0.76875285  0.49003419  1
  C  C130  1  0.77593093  0.67691713  0.52914190  1
  C  C131  1  0.75629864  0.69359475  0.60211118  1
  C  C132  1  0.75978645  0.61787827  0.65665761  1
  C  C133  1  0.73275353  0.65068831  0.72399668  1
  C  C134  1  0.70199583  0.75883027  0.73877636  1
  C  C135  1  0.66667548  0.78893493  0.81119275  1
  C  C136  1  0.69891825  0.83585670  0.68566245  1
  C  C137  1  0.72671377  0.80311645  0.61765767  1
  C  C138  1  0.81949866  0.86346368  0.38029729  1
  C  C139  1  0.83210351  0.86158699  0.30768107  1
  S  S140  1  0.21896876  0.11905052  0.45815988  1
  S  S141  1  0.11755993  0.77891630  0.45848412  1
  S  S142  1  0.88086988  0.27596454  0.54382135  1
  S  S143  1  0.72601291  0.88081103  0.54220407  1
  I  I144  1  0.22925329  0.94437912  0.00600968  1
  I  I145  1  0.25630480  0.59451374  0.00361903  1
  I  I146  1  0.73068232  0.07613164  0.98471057  1
  I  I147  1  0.76001127  0.43553794  0.00310355  1
  I  I148  1  0.06579346  0.24653942  0.99612870  1
  I  I149  1  0.93546700  0.74919372  0.99275855  1
  I  I150  1  0.42377935  0.24471579  0.00177404  1
  I  I151  1  0.58601608  0.74946479  0.00234830  1
  I  I152  1  0.99054959  0.00595355  0.80852411  1
  I  I153  1  0.96871482  0.99904473  0.14446300  1
  I  I154  1  0.02347117  0.49382498  0.84276266  1
  I  I155  1  1.00123622  0.50695944  0.18224662  1
  I  I156  1  0.43600253  0.96155096  0.84260061  1
  I  I157  1  0.50135791  -0.00004240  0.17942733  1
  I  I158  1  0.49812357  0.50050500  0.83942598  1
  I  I159  1  0.52226938  0.50276229  0.17494282  1
  N  N160  1  0.25059593  0.16345167  0.85337184  1
  N  N161  1  0.27223413  0.16147944  0.14291160  1
  N  N162  1  0.16265165  0.75205216  0.85311960  1
  N  N163  1  0.15478185  0.73848290  0.14381259  1
  N  N164  1  0.83487870  0.27724661  0.14848537  1
  N  N165  1  0.83776431  0.25272492  0.85710159  1
  N  N166  1  0.73159490  0.83690409  0.15028047  1
  N  N167  1  0.75660270  0.83675660  0.85698634  1
