# generated using pymatgen
data_H18PbC13S(I2N)2
_symmetry_space_group_name_H-M   'P 1'
_cell_length_a   12.88723409
_cell_length_b   12.62921751
_cell_length_c   16.91052025
_cell_angle_alpha   90.86398758
_cell_angle_beta   89.55314780
_cell_angle_gamma   90.49580308
_symmetry_Int_Tables_number   1
_chemical_formula_structural   H18PbC13S(I2N)2
_chemical_formula_sum   'H72 Pb4 C52 S4 I16 N8'
_cell_volume   2751.78637583
_cell_formula_units_Z   4
loop_
 _symmetry_equiv_pos_site_id
 _symmetry_equiv_pos_as_xyz
  1  'x, y, z'
loop_
 _atom_site_type_symbol
 _atom_site_label
 _atom_site_symmetry_multiplicity
 _atom_site_fract_x
 _atom_site_fract_y
 _atom_site_fract_z
 _atom_site_occupancy
  H  H0  1  0.13532185  0.08927311  0.73781049  1
  H  H1  1  0.09444266  0.20213640  0.79297414  1
  H  H2  1  0.16230667  0.09886431  0.84047324  1
  H  H3  1  0.32264766  0.14005336  0.76248237  1
  H  H4  1  0.30825539  0.22625893  0.88381600  1
  H  H5  1  0.22594667  0.31707546  0.85252746  1
  H  H6  1  0.34992953  0.32251410  0.82242999  1
  H  H7  1  0.32545709  0.14315669  0.60820057  1
  H  H8  1  0.33227502  0.43307622  0.45569456  1
  H  H9  1  0.36917667  0.41565719  0.31203900  1
  H  H10  1  0.37844748  0.16108905  0.20464659  1
  H  H11  1  0.40949534  0.29960681  0.20212043  1
  H  H12  1  0.28899314  0.24654065  0.10480148  1
  H  H13  1  0.20094244  0.20413058  0.17156462  1
  H  H14  1  0.23208507  0.33317486  0.16637179  1
  H  H15  1  0.27144866  0.08814726  0.31713669  1
  H  H16  1  0.23484305  0.10554566  0.46075638  1
  H  H17  1  0.17665112  0.44014078  0.54690045  1
  H  H18  1  0.09020337  0.86069957  0.74839477  1
  H  H19  1  0.20193317  0.90303129  0.80093445  1
  H  H20  1  0.10150266  0.83052560  0.84987866  1
  H  H21  1  0.13980190  0.67047345  0.76549497  1
  H  H22  1  0.23041678  0.68201763  0.88543906  1
  H  H23  1  0.32129634  0.76332045  0.85165058  1
  H  H24  1  0.31663594  0.63825346  0.81881934  1
  H  H25  1  0.14094410  0.67395013  0.61039046  1
  H  H26  1  0.42808842  0.66768495  0.45733193  1
  H  H27  1  0.41609592  0.63281682  0.31296526  1
  H  H28  1  0.17468014  0.61427655  0.20521608  1
  H  H29  1  0.31202656  0.59564414  0.20232287  1
  H  H30  1  0.26072645  0.71590968  0.10680146  1
  H  H31  1  0.20079222  0.79619695  0.17207992  1
  H  H32  1  0.32878215  0.78849992  0.17356451  1
  H  H33  1  0.09566693  0.72791319  0.31862938  1
  H  H34  1  0.10831087  0.76523872  0.46240455  1
  H  H35  1  0.43539732  0.82623423  0.54809933  1
  H  H36  1  0.91213074  0.36267790  0.26560181  1
  H  H37  1  0.80556766  0.41093827  0.21187877  1
  H  H38  1  0.90665065  0.34011439  0.16187776  1
  H  H39  1  0.85799663  0.17468571  0.23130409  1
  H  H40  1  0.78042083  0.21594358  0.10898158  1
  H  H41  1  0.68100198  0.27956680  0.15161260  1
  H  H42  1  0.69482370  0.14842479  0.16172970  1
  H  H43  1  0.85565693  0.17712058  0.38683340  1
  H  H44  1  0.57178693  0.16967679  0.54403952  1
  H  H45  1  0.58884279  0.14047411  0.68824856  1
  H  H46  1  0.84068374  0.14745521  0.79139226  1
  H  H47  1  0.71058246  0.10076506  0.79477919  1
  H  H48  1  0.74478183  0.22878896  0.89283433  1
  H  H49  1  0.78144287  0.32184164  0.82938731  1
  H  H50  1  0.65736580  0.27944356  0.83191163  1
  H  H51  1  0.90853728  0.24205455  0.67624561  1
  H  H52  1  0.89164676  0.27131989  0.53220511  1
  H  H53  1  0.56010089  0.32324360  0.45207298  1
  H  H54  1  0.63956966  0.91726341  0.26437505  1
  H  H55  1  0.59280082  0.80636317  0.21003610  1
  H  H56  1  0.66336152  0.90814618  0.16065375  1
  H  H57  1  0.82477321  0.85999423  0.23341021  1
  H  H58  1  0.79364769  0.77555122  0.11078167  1
  H  H59  1  0.71658793  0.68261682  0.14880698  1
  H  H60  1  0.84483738  0.68379360  0.16983654  1
  H  H61  1  0.82346999  0.86073318  0.38844344  1
  H  H62  1  0.83170392  0.57175880  0.53982383  1
  H  H63  1  0.86791522  0.58776434  0.68342560  1
  H  H64  1  0.87623112  0.84033722  0.79351302  1
  H  H65  1  0.90981883  0.70353919  0.79242035  1
  H  H66  1  0.79251186  0.74733371  0.89323920  1
  H  H67  1  0.70018060  0.78771932  0.83087638  1
  H  H68  1  0.73535600  0.66028727  0.83271573  1
  H  H69  1  0.77060035  0.91364473  0.68127561  1
  H  H70  1  0.73333463  0.89717908  0.53821892  1
  H  H71  1  0.67555523  0.56049303  0.45157804  1
  Pb  Pb72  1  0.00092671  1.00241578  0.03236150  1
  Pb  Pb73  1  -0.01003934  0.50478537  0.00337340  1
  Pb  Pb74  1  0.48456522  0.99369514  0.00464454  1
  Pb  Pb75  1  0.49558636  0.49905752  0.98969041  1
  C  C76  1  0.15707408  0.14405694  0.78582399  1
  C  C77  1  0.25950168  0.19827706  0.76597646  1
  C  C78  1  0.25475500  0.25649395  0.68960560  1
  C  C79  1  0.28452869  0.21780665  0.61627051  1
  C  C80  1  0.25725133  0.28613487  0.55320089  1
  C  C81  1  0.28055892  0.27090660  0.46837876  1
  C  C82  1  0.31754859  0.35785766  0.42505115  1
  C  C83  1  0.33758626  0.34825608  0.34437714  1
  C  C84  1  0.32086303  0.25151093  0.30454148  1
  C  C85  1  0.35015739  0.24103126  0.21884142  1
  C  C86  1  0.28408207  0.16418613  0.34733612  1
  C  C87  1  0.26453637  0.17371904  0.42839969  1
  C  C88  1  0.20632653  0.37525045  0.58129388  1
  C  C89  1  0.14509240  0.83816512  0.79424774  1
  C  C90  1  0.19741617  0.73525105  0.76943089  1
  C  C91  1  0.25295467  0.74399722  0.69161498  1
  C  C92  1  0.21489151  0.71522828  0.61832481  1
  C  C93  1  0.28299523  0.74398358  0.55489810  1
  C  C94  1  0.26967174  0.72002266  0.46999118  1
  C  C95  1  0.35573955  0.68268555  0.42658118  1
  C  C96  1  0.34898687  0.66303598  0.34573428  1
  C  C97  1  0.25594730  0.67948864  0.30573634  1
  C  C98  1  0.25003427  0.65055036  0.21947875  1
  C  C99  1  0.16917277  0.71574819  0.34871107  1
  C  C100  1  0.17594488  0.73562720  0.42996882  1
  C  C101  1  0.37085764  0.79553600  0.58277235  1
  C  C102  1  0.86005819  0.34486946  0.21630200  1
  C  C103  1  0.80300856  0.24121773  0.23084473  1
  C  C104  1  0.74347905  0.24433835  0.30712053  1
  C  C105  1  0.78161896  0.21694153  0.37987706  1
  C  C106  1  0.71375424  0.24529728  0.44383768  1
  C  C107  1  0.72941539  0.22486626  0.52840170  1
  C  C108  1  0.64483950  0.18803359  0.57357689  1
  C  C109  1  0.65414811  0.17232135  0.65431034  1
  C  C110  1  0.74849337  0.19331727  0.69233842  1
  C  C111  1  0.76040941  0.16788761  0.77785693  1
  C  C112  1  0.83404256  0.22785935  0.64739511  1
  C  C113  1  0.82478957  0.24334550  0.56626034  1
  C  C114  1  0.62527389  0.29426254  0.41714346  1
  C  C115  1  0.65786275  0.86272754  0.21539745  1
  C  C116  1  0.75809792  0.80470263  0.23131609  1
  C  C117  1  0.75282642  0.74611971  0.30792427  1
  C  C118  1  0.78207718  0.78563172  0.38097604  1
  C  C119  1  0.75492790  0.71688992  0.44446531  1
  C  C120  1  0.77838081  0.73241161  0.52902707  1
  C  C121  1  0.81607304  0.64596199  0.57136360  1
  C  C122  1  0.83614691  0.65482779  0.65178233  1
  C  C123  1  0.81908946  0.75061254  0.69260411  1
  C  C124  1  0.84885319  0.76005556  0.77788363  1
  C  C125  1  0.78254905  0.83781909  0.65069949  1
  C  C126  1  0.76254847  0.82894335  0.56982039  1
  C  C127  1  0.70476795  0.62638720  0.41707516  1
  S  S128  1  0.19042680  0.37518662  0.68138635  1
  S  S129  1  0.37051339  0.80973944  0.68316219  1
  S  S130  1  0.62544827  0.30739413  0.31692995  1
  S  S131  1  0.68971390  0.62562587  0.31707739  1
  I  I132  1  0.23390111  0.02018927  0.98751706  1
  I  I133  1  0.23613895  0.52009402  0.00664328  1
  I  I134  1  0.72788681  0.01367122  0.02116002  1
  I  I135  1  0.73696452  0.51360606  0.98520470  1
  I  I136  1  0.96799468  0.25178420  0.01652862  1
  I  I137  1  0.96501528  0.75297004  0.98623072  1
  I  I138  1  0.46700204  0.24958579  0.01079886  1
  I  I139  1  0.47447072  0.74778675  0.97644391  1
  I  I140  1  0.94756358  0.01026827  0.85453303  1
  I  I141  1  0.02416110  0.00842368  0.22374154  1
  I  I142  1  0.97732899  0.47173615  0.81577726  1
  I  I143  1  0.98473162  0.57601693  0.18987458  1
  I  I144  1  0.50291197  0.01124463  0.81762979  1
  I  I145  1  0.41594664  0.96152698  0.18869205  1
  I  I146  1  0.46600644  0.47845891  0.79601453  1
  I  I147  1  0.51414550  0.50951642  0.17226509  1
  N  N148  1  0.28783025  0.27058184  0.83533163  1
  N  N149  1  0.26087045  0.25750371  0.16222409  1
  N  N150  1  0.27078143  0.70296181  0.83470514  1
  N  N151  1  0.26077201  0.74334963  0.16476870  1
  N  N152  1  0.73414951  0.21995537  0.15972372  1
  N  N153  1  0.73357887  0.25618260  0.83622754  1
  N  N154  1  0.77885084  0.73216824  0.16101965  1
  N  N155  1  0.76208881  0.73739624  0.83660059  1
