# generated using pymatgen
data_H18PbC16S2(I2N)2
_symmetry_space_group_name_H-M   'P 1'
_cell_length_a   12.34920510
_cell_length_b   12.68736735
_cell_length_c   20.22086927
_cell_angle_alpha   87.23032866
_cell_angle_beta   86.56420884
_cell_angle_gamma   89.38112945
_symmetry_Int_Tables_number   1
_chemical_formula_structural   H18PbC16S2(I2N)2
_chemical_formula_sum   'H72 Pb4 C64 S8 I16 N8'
_cell_volume   3158.69551409
_cell_formula_units_Z   4
loop_
 _symmetry_equiv_pos_site_id
 _symmetry_equiv_pos_as_xyz
  1  'x, y, z'
loop_
 _atom_site_type_symbol
 _atom_site_label
 _atom_site_symmetry_multiplicity
 _atom_site_fract_x
 _atom_site_fract_y
 _atom_site_fract_z
 _atom_site_occupancy
  H  H0  1  0.15056622  0.15020337  0.85208697  1
  H  H1  1  0.28528584  0.12476971  0.84752031  1
  H  H2  1  0.22834747  0.18040109  0.91319716  1
  H  H3  1  0.20319583  0.34471645  0.85883594  1
  H  H4  1  0.33633138  0.30075077  0.83540261  1
  H  H5  1  0.09511330  0.41832967  0.76724741  1
  H  H6  1  0.08384229  0.41689303  0.63711060  1
  H  H7  1  0.23242573  0.44656362  0.53915566  1
  H  H8  1  0.25834445  0.42427093  0.41827006  1
  H  H9  1  0.40536018  0.36311507  0.33319493  1
  H  H10  1  0.40704770  0.31617459  0.20737210  1
  H  H11  1  0.34183495  0.16566023  0.13851895  1
  H  H12  1  0.24574862  0.07295855  0.17352465  1
  H  H13  1  0.10258916  0.18841997  0.15185047  1
  H  H14  1  0.18242676  0.29376516  0.13309918  1
  H  H15  1  0.18486756  0.19002122  0.08382609  1
  H  H16  1  0.25704512  0.08632120  0.45265753  1
  H  H17  1  0.22695265  0.10868367  0.57339640  1
  H  H18  1  0.14808015  0.85414825  0.84722747  1
  H  H19  1  0.11628348  0.72573329  0.84385753  1
  H  H20  1  0.16642380  0.76890562  0.91123227  1
  H  H21  1  0.34303094  0.79665742  0.85902128  1
  H  H22  1  0.29993967  0.66734645  0.84411811  1
  H  H23  1  0.41592123  0.90719008  0.75890267  1
  H  H24  1  0.41708249  0.91637240  0.62788036  1
  H  H25  1  0.45432768  0.76606976  0.53807968  1
  H  H26  1  0.42943651  0.73714323  0.41964830  1
  H  H27  1  0.35926891  0.58586272  0.34654235  1
  H  H28  1  0.30288156  0.58241528  0.22263976  1
  H  H29  1  0.16329332  0.66137430  0.14746315  1
  H  H30  1  0.05852207  0.74489216  0.17894453  1
  H  H31  1  0.16719552  0.89325689  0.15858369  1
  H  H32  1  0.28289253  0.82564634  0.14468882  1
  H  H33  1  0.18191664  0.82400713  0.09133641  1
  H  H34  1  0.08219528  0.74064392  0.45867655  1
  H  H35  1  0.10683381  0.77295455  0.57669223  1
  H  H36  1  0.84862667  0.35843587  0.15189151  1
  H  H37  1  0.88188310  0.23056503  0.15695333  1
  H  H38  1  0.82861452  0.28224764  0.08877982  1
  H  H39  1  0.65384716  0.29966801  0.14116497  1
  H  H40  1  0.70250746  0.17038640  0.16135711  1
  H  H41  1  0.58468514  0.40925431  0.23421293  1
  H  H42  1  0.58763136  0.41827200  0.36532904  1
  H  H43  1  0.54851424  0.26490675  0.46187624  1
  H  H44  1  0.57194916  0.23891936  0.58235305  1
  H  H45  1  0.63755512  0.09921160  0.66904993  1
  H  H46  1  0.68679676  0.10658647  0.79362886  1
  H  H47  1  0.83566993  0.18066979  0.86195440  1
  H  H48  1  0.93693969  0.26446623  0.82392326  1
  H  H49  1  0.82950700  0.41384947  0.84089263  1
  H  H50  1  0.71306902  0.34870266  0.85261584  1
  H  H51  1  0.80644022  0.34109907  0.90985634  1
  H  H52  1  0.91972663  0.24391338  0.54500770  1
  H  H53  1  0.89600218  0.27286710  0.42474721  1
  H  H54  1  0.62401572  0.83680993  0.15197676  1
  H  H55  1  0.75019016  0.87762959  0.16111291  1
  H  H56  1  0.72005255  0.83041997  0.08952202  1
  H  H57  1  0.69379813  0.65404217  0.14075278  1
  H  H58  1  0.82625030  0.70149788  0.15283863  1
  H  H59  1  0.57183294  0.59912166  0.24138847  1
  H  H60  1  0.56471551  0.60200719  0.37316294  1
  H  H61  1  0.73108480  0.55317978  0.45933115  1
  H  H62  1  0.76130163  0.57774171  0.57788230  1
  H  H63  1  0.91592744  0.64712538  0.65145875  1
  H  H64  1  0.91375431  0.70024683  0.77602572  1
  H  H65  1  0.82577841  0.82939458  0.85402916  1
  H  H66  1  0.74666376  0.93563031  0.82320339  1
  H  H67  1  0.58863298  0.83877912  0.83970944  1
  H  H68  1  0.65031611  0.71974326  0.84650199  1
  H  H69  1  0.65412184  0.80831491  0.90631055  1
  H  H70  1  0.75620799  0.91503944  0.54106945  1
  H  H71  1  0.72349017  0.89051470  0.42290358  1
  Pb  Pb72  1  0.98199370  0.01223681  0.00211175  1
  Pb  Pb73  1  1.00146847  0.51364496  0.01430971  1
  Pb  Pb74  1  0.49018584  0.01625065  0.01317240  1
  Pb  Pb75  1  0.49372661  0.51499591  0.98623784  1
  C  C76  1  0.24972794  0.28704209  0.82966499  1
  C  C77  1  0.21957995  0.29714521  0.75933618  1
  C  C78  1  0.14377446  0.36721291  0.73509695  1
  C  C79  1  0.13892914  0.36748590  0.66540453  1
  C  C80  1  0.20984249  0.29615434  0.63606295  1
  C  C81  1  0.22771579  0.27920389  0.56501031  1
  C  C82  1  0.23683258  0.36751428  0.52014213  1
  C  C83  1  0.25281100  0.35498483  0.45235932  1
  C  C84  1  0.26040612  0.25374018  0.42662496  1
  C  C85  1  0.28120300  0.24472738  0.35496735  1
  C  C86  1  0.35296330  0.30484478  0.31411332  1
  C  C87  1  0.35485514  0.27890204  0.24696075  1
  C  C88  1  0.28289685  0.20022131  0.23590734  1
  C  C89  1  0.26703695  0.15667433  0.17039981  1
  C  C90  1  0.25061845  0.16549568  0.47142035  1
  C  C91  1  0.23500522  0.17803681  0.53943983  1
  C  C92  1  0.28621901  0.75155614  0.83185300  1
  C  C93  1  0.30087274  0.77933977  0.75942147  1
  C  C94  1  0.36890268  0.85578257  0.73003815  1
  C  C95  1  0.36932366  0.86074658  0.65997527  1
  C  C96  1  0.30004396  0.78916940  0.63555588  1
  C  C97  1  0.28239882  0.77108418  0.56590967  1
  C  C98  1  0.37267381  0.76121955  0.52058137  1
  C  C99  1  0.35871970  0.74365198  0.45429739  1
  C  C100  1  0.25405784  0.73550071  0.43096186  1
  C  C101  1  0.24200446  0.71265025  0.36149623  1
  C  C102  1  0.29880986  0.63822242  0.32519251  1
  C  C103  1  0.26807317  0.63551721  0.25916988  1
  C  C104  1  0.18906331  0.70891521  0.24448347  1
  C  C105  1  0.14612621  0.72928251  0.17805927  1
  C  C106  1  0.16383844  0.74691281  0.47601275  1
  C  C107  1  0.17778124  0.76386053  0.54248677  1
  C  C108  1  0.71290622  0.25444863  0.16980594  1
  C  C109  1  0.69931652  0.27980262  0.24094710  1
  C  C110  1  0.63266648  0.35776817  0.26612763  1
  C  C111  1  0.63381377  0.36191981  0.33583736  1
  C  C112  1  0.70300500  0.28867371  0.36395103  1
  C  C113  1  0.72059292  0.27067652  0.43474380  1
  C  C114  1  0.62990759  0.26107070  0.48023456  1
  C  C115  1  0.64316020  0.24533044  0.54779170  1
  C  C116  1  0.74751987  0.23899802  0.57243706  1
  C  C117  1  0.75802414  0.22044951  0.64391417  1
  C  C118  1  0.69792840  0.15163197  0.68635340  1
  C  C119  1  0.72570263  0.15451206  0.75299912  1
  C  C120  1  0.80603558  0.22614796  0.76219783  1
  C  C121  1  0.84959112  0.24869454  0.82704612  1
  C  C122  1  0.83812715  0.24935934  0.52699598  1
  C  C123  1  0.82484808  0.26441608  0.45923601  1
  C  C124  1  0.73952640  0.71129267  0.16690921  1
  C  C125  1  0.71336711  0.69795939  0.23967608  1
  C  C126  1  0.62888105  0.64030687  0.26998284  1
  C  C127  1  0.62518246  0.64227856  0.33994677  1
  C  C128  1  0.70531546  0.70323353  0.36329608  1
  C  C129  1  0.72549699  0.72016820  0.43280601  1
  C  C130  1  0.73596801  0.63253560  0.47741428  1
  C  C131  1  0.75410227  0.64625277  0.54366854  1
  C  C132  1  0.76189141  0.74808832  0.56762997  1
  C  C133  1  0.78458324  0.76001861  0.63713706  1
  C  C134  1  0.86086397  0.70550904  0.67304947  1
  C  C135  1  0.86086393  0.73496140  0.73951282  1
  C  C136  1  0.78422365  0.81086651  0.75497176  1
  C  C137  1  0.75898771  0.85000007  0.82230855  1
  C  C138  1  0.74986230  0.83564162  0.52324181  1
  C  C139  1  0.73267084  0.82189925  0.45678392  1
  S  S140  1  0.21459792  0.15632558  0.30916813  1
  S  S141  1  0.28425041  0.22989995  0.69543830  1
  S  S142  1  0.15037768  0.78001312  0.31300595  1
  S  S143  1  0.23632228  0.71373129  0.69995201  1
  S  S144  1  0.84915275  0.28867293  0.68748011  1
  S  S145  1  0.76540654  0.21251828  0.30357814  1
  S  S146  1  0.71301224  0.84804833  0.68643845  1
  S  S147  1  0.78732119  0.75665799  0.29792413  1
  I  I148  1  0.23521905  0.02002058  0.00974233  1
  I  I149  1  0.24610757  0.45270061  0.98736422  1
  I  I150  1  0.73947479  0.96141516  0.98724339  1
  I  I151  1  0.74675557  0.48155884  0.01635238  1
  I  I152  1  0.98747486  0.25751242  0.98635861  1
  I  I153  1  0.02194839  0.76138865  0.01721665  1
  I  I154  1  0.50160856  0.25035764  0.03314890  1
  I  I155  1  0.46605331  0.75916861  0.99257131  1
  I  I156  1  0.01433049  0.00530729  0.84257883  1
  I  I157  1  0.96144135  0.02229593  0.16812498  1
  I  I158  1  0.99729087  0.54977476  0.85548101  1
  I  I159  1  0.01383772  0.46798670  0.17124521  1
  I  I160  1  0.47922831  0.04397904  0.85255997  1
  I  I161  1  0.46196726  0.94334845  0.17124118  1
  I  I162  1  0.57636910  0.53750967  0.82653863  1
  I  I163  1  0.46540149  0.51909882  0.13841511  1
  N  N164  1  0.22623937  0.17983189  0.86212963  1
  N  N165  1  0.17857240  0.21248891  0.13264953  1
  N  N166  1  0.17342408  0.77715374  0.85984102  1
  N  N167  1  0.19918504  0.82375709  0.14101238  1
  N  N168  1  0.82397230  0.28329728  0.14008201  1
  N  N169  1  0.79542754  0.34303813  0.85925501  1
  N  N170  1  0.70678766  0.81962114  0.14068765  1
  N  N171  1  0.65746224  0.80039927  0.85540675  1
