# generated using pymatgen
data_H18PbC16S2(I2N)2
_symmetry_space_group_name_H-M   'P 1'
_cell_length_a   12.42923931
_cell_length_b   12.20383007
_cell_length_c   20.25155522
_cell_angle_alpha   91.79164309
_cell_angle_beta   91.10742490
_cell_angle_gamma   89.10095078
_symmetry_Int_Tables_number   1
_chemical_formula_structural   H18PbC16S2(I2N)2
_chemical_formula_sum   'H72 Pb4 C64 S8 I16 N8'
_cell_volume   3069.41841831
_cell_formula_units_Z   4
loop_
 _symmetry_equiv_pos_site_id
 _symmetry_equiv_pos_as_xyz
  1  'x, y, z'
loop_
 _atom_site_type_symbol
 _atom_site_label
 _atom_site_symmetry_multiplicity
 _atom_site_fract_x
 _atom_site_fract_y
 _atom_site_fract_z
 _atom_site_occupancy
  H  H0  1  0.33729681  0.24692158  0.85728553  1
  H  H1  1  0.26360133  0.36326168  0.85189988  1
  H  H2  1  0.25412830  0.28470615  0.91708588  1
  H  H3  1  0.17183716  0.13921735  0.85311682  1
  H  H4  1  0.09846033  0.26467458  0.84675732  1
  H  H5  1  0.26049537  0.05411629  0.75733640  1
  H  H6  1  0.27774274  0.04135256  0.63634546  1
  H  H7  1  0.18209489  0.01496545  0.52656758  1
  H  H8  1  0.21277812  0.04896505  0.40132293  1
  H  H9  1  0.27671145  0.44523781  0.38763683  1
  H  H10  1  0.32334415  0.47284261  0.26339306  1
  H  H11  1  0.36373304  0.35657073  0.15539453  1
  H  H12  1  0.38488456  0.21224607  0.16383523  1
  H  H13  1  0.19152873  0.18729729  0.15041405  1
  H  H14  1  0.24311155  0.24838058  0.08598373  1
  H  H15  1  0.17236003  0.32284142  0.14123499  1
  H  H16  1  0.12453231  0.35944367  0.62025643  1
  H  H17  1  0.10681786  0.37166299  0.74139011  1
  H  H18  1  0.22929039  0.65180571  0.85592178  1
  H  H19  1  0.34865677  0.70309910  0.83422808  1
  H  H20  1  0.30256577  0.73293363  0.90886510  1
  H  H21  1  0.14129444  0.82407211  0.85704363  1
  H  H22  1  0.26640715  0.89144455  0.84940099  1
  H  H23  1  0.04599585  0.75003745  0.75944500  1
  H  H24  1  0.02947798  0.73144814  0.63790345  1
  H  H25  1  0.00840903  0.81710305  0.53014015  1
  H  H26  1  0.04406270  0.78989512  0.40308597  1
  H  H27  1  0.43381966  0.73322530  0.38560185  1
  H  H28  1  0.46349418  0.69045418  0.25869050  1
  H  H29  1  0.35347374  0.64242834  0.15185087  1
  H  H30  1  0.21271682  0.61881133  0.15861017  1
  H  H31  1  0.17746653  0.81471201  0.14920544  1
  H  H32  1  0.25884884  0.76882251  0.08766029  1
  H  H33  1  0.31013610  0.84082981  0.15108541  1
  H  H34  1  0.35304225  0.84999382  0.62099127  1
  H  H35  1  0.36916619  0.86686735  0.74264526  1
  H  H36  1  0.77300981  0.14769944  0.14228255  1
  H  H37  1  0.65385591  0.21016078  0.15307802  1
  H  H38  1  0.72313935  0.22791786  0.08482573  1
  H  H39  1  0.86661607  0.31923266  0.14631459  1
  H  H40  1  0.74034831  0.38979379  0.15327918  1
  H  H41  1  0.95193537  0.23443969  0.24263832  1
  H  H42  1  0.96338024  0.21999078  0.36396204  1
  H  H43  1  0.98562581  0.30944835  0.47386672  1
  H  H44  1  0.94887276  0.27764020  0.59895086  1
  H  H45  1  0.55985994  0.22262739  0.61205695  1
  H  H46  1  0.52841110  0.17733241  0.73651086  1
  H  H47  1  0.63713562  0.12556753  0.84116423  1
  H  H48  1  0.77874486  0.10523249  0.83436133  1
  H  H49  1  0.80476867  0.29676625  0.86248151  1
  H  H50  1  0.73004620  0.23921887  0.91847048  1
  H  H51  1  0.67196804  0.32214712  0.86380786  1
  H  H52  1  0.64801864  0.37095776  0.38021928  1
  H  H53  1  0.63645718  0.38383149  0.25872062  1
  H  H54  1  0.85569804  0.77205177  0.14469334  1
  H  H55  1  0.80353715  0.64936574  0.15730276  1
  H  H56  1  0.78017418  0.71110617  0.08642396  1
  H  H57  1  0.68322074  0.86230195  0.14358425  1
  H  H58  1  0.62002718  0.73267672  0.14933089  1
  H  H59  1  0.75507895  0.95725164  0.24248092  1
  H  H60  1  0.76986081  0.97192867  0.36417359  1
  H  H61  1  0.68636855  0.99106203  0.47275400  1
  H  H62  1  0.71550138  0.95393860  0.59858405  1
  H  H63  1  0.78076674  0.55607303  0.61147087  1
  H  H64  1  0.82332265  0.52518974  0.73743937  1
  H  H65  1  0.87229526  0.64062037  0.84513820  1
  H  H66  1  0.88743209  0.78471265  0.83802434  1
  H  H67  1  0.69104347  0.80750379  0.85289372  1
  H  H68  1  0.75603042  0.74400621  0.91507646  1
  H  H69  1  0.68110039  0.67170682  0.86016625  1
  H  H70  1  0.65472860  0.64109418  0.37627119  1
  H  H71  1  0.64370034  0.62589473  0.25454460  1
  Pb  Pb72  1  0.00143205  1.00511987  -0.00065159  1
  Pb  Pb73  1  0.02148111  0.50589155  0.00710467  1
  Pb  Pb74  1  0.49439780  0.99052151  0.00293616  1
  Pb  Pb75  1  0.51424365  0.50067799  0.98693163  1
  C  C76  1  0.17212349  0.22070174  0.83189473  1
  C  C77  1  0.18376160  0.21454807  0.75815844  1
  C  C78  1  0.23123710  0.12176109  0.72752974  1
  C  C79  1  0.24034422  0.11400426  0.65919431  1
  C  C80  1  0.20240446  0.19916067  0.61912997  1
  C  C81  1  0.21170973  0.18822611  0.54738938  1
  C  C82  1  0.20235727  0.09439063  0.50748752  1
  C  C83  1  0.21795385  0.11304028  0.43992381  1
  C  C84  1  0.24066102  0.22146805  0.42723464  1
  C  C85  1  0.26587026  0.26927923  0.36514745  1
  C  C86  1  0.28266456  0.37831931  0.35091313  1
  C  C87  1  0.30732898  0.39346272  0.28398813  1
  C  C88  1  0.30999165  0.29661412  0.24687482  1
  C  C89  1  0.33018820  0.28184444  0.17515505  1
  C  C90  1  0.15559106  0.29261634  0.65015949  1
  C  C91  1  0.14564407  0.29963445  0.71848010  1
  C  C92  1  0.21979252  0.81946593  0.83323341  1
  C  C93  1  0.20838927  0.81000501  0.75933860  1
  C  C94  1  0.11300273  0.77268744  0.72907372  1
  C  C95  1  0.10348921  0.76283543  0.66064883  1
  C  C96  1  0.18960750  0.79048037  0.62049751  1
  C  C97  1  0.17838129  0.78182508  0.54880594  1
  C  C98  1  0.08653472  0.79510256  0.50975489  1
  C  C99  1  0.10574100  0.78097107  0.44157751  1
  C  C100  1  0.21248367  0.75571512  0.42781880  1
  C  C101  1  0.26071247  0.73288308  0.36466884  1
  C  C102  1  0.36888986  0.72288066  0.34912901  1
  C  C103  1  0.38509072  0.70067726  0.28118602  1
  C  C104  1  0.29012500  0.69288721  0.24496683  1
  C  C105  1  0.27798744  0.67531881  0.17251278  1
  C  C106  1  0.28578155  0.82663133  0.65120516  1
  C  C107  1  0.29480583  0.83642771  0.71961513  1
  C  C108  1  0.78687999  0.31721448  0.16833395  1
  C  C109  1  0.79293630  0.30872737  0.24210693  1
  C  C110  1  0.88510612  0.26426070  0.27277635  1
  C  C111  1  0.89185041  0.25669745  0.34113022  1
  C  C112  1  0.80636536  0.29391725  0.38119994  1
  C  C113  1  0.81518440  0.28440690  0.45289711  1
  C  C114  1  0.90674484  0.29112998  0.49287286  1
  C  C115  1  0.88687347  0.27503030  0.56021081  1
  C  C116  1  0.77976308  0.25479826  0.57292793  1
  C  C117  1  0.73170403  0.23103534  0.63516802  1
  C  C118  1  0.62404770  0.21624166  0.64920130  1
  C  C119  1  0.60689925  0.19286481  0.71603655  1
  C  C120  1  0.70066887  0.18926302  0.75363327  1
  C  C121  1  0.71142412  0.16255591  0.82446402  1
  C  C122  1  0.71419541  0.33912213  0.35016813  1
  C  C123  1  0.70767507  0.34640907  0.28172164  1
  C  C124  1  0.68936125  0.78169522  0.16591761  1
  C  C125  1  0.69816582  0.79076633  0.23998130  1
  C  C126  1  0.73261976  0.88800771  0.27182058  1
  C  C127  1  0.74031604  0.89654646  0.34038057  1
  C  C128  1  0.71286666  0.80790492  0.37946024  1
  C  C129  1  0.72124692  0.81811043  0.45136444  1
  C  C130  1  0.70862600  0.91112319  0.49174674  1
  C  C131  1  0.72394650  0.89100850  0.55954341  1
  C  C132  1  0.74945127  0.78212895  0.57195303  1
  C  C133  1  0.77276180  0.73233945  0.63446451  1
  C  C134  1  0.78710023  0.62223594  0.64869443  1
  C  C135  1  0.80923047  0.60535549  0.71638114  1
  C  C136  1  0.81208567  0.70179415  0.75394885  1
  C  C137  1  0.83435567  0.71527672  0.82594688  1
  C  C138  1  0.67856435  0.71027220  0.34718623  1
  C  C139  1  0.67187831  0.70185302  0.27858602  1
  S  S140  1  0.28371513  0.18575445  0.29511222  1
  S  S141  1  0.24086515  0.29999475  0.50026412  1
  S  S142  1  0.17981240  0.71117853  0.29497042  1
  S  S143  1  0.28863861  0.75046868  0.50022713  1
  S  S144  1  0.81142452  0.21310607  0.70565642  1
  S  S145  1  0.70386807  0.25714016  0.49996769  1
  S  S146  1  0.78926304  0.81417014  0.70540205  1
  S  S147  1  0.75371338  0.70541315  0.49844767  1
  I  I148  1  0.24827676  0.06256275  0.99166438  1
  I  I149  1  0.26556293  0.45793439  0.02114059  1
  I  I150  1  0.74541741  0.01199106  0.00643991  1
  I  I151  1  0.76094280  0.51231302  0.97595838  1
  I  I152  1  0.96028729  0.25929391  0.00325608  1
  I  I153  1  0.96086161  0.75488653  0.99613653  1
  I  I154  1  0.51467409  0.24635458  0.97937426  1
  I  I155  1  0.42416193  0.74583844  0.00905072  1
  I  I156  1  0.97198978  0.00116633  0.84306856  1
  I  I157  1  1.00652317  0.97827412  0.16270721  1
  I  I158  1  0.07862562  0.51938764  0.85009811  1
  I  I159  1  0.01276407  0.51386928  0.16512474  1
  I  I160  1  0.51491224  0.93310808  0.84599475  1
  I  I161  1  0.46988209  0.99779467  0.16216895  1
  I  I162  1  0.51239476  0.50211809  0.82776893  1
  I  I163  1  0.54527019  0.50184311  0.14397742  1
  N  N164  1  0.26318709  0.28258430  0.86624920  1
  N  N165  1  0.22710365  0.25829388  0.13593219  1
  N  N166  1  0.27888841  0.72064775  0.85953553  1
  N  N167  1  0.25292676  0.78184795  0.13831020  1
  N  N168  1  0.73031047  0.21985497  0.13545637  1
  N  N169  1  0.73117767  0.26210815  0.86968023  1
  N  N170  1  0.78784249  0.72477758  0.13697227  1
  N  N171  1  0.73372857  0.73660454  0.86567143  1
