# generated using pymatgen
data_H18PbC13S(I2N)2
_symmetry_space_group_name_H-M   'P 1'
_cell_length_a   12.40387107
_cell_length_b   12.35865917
_cell_length_c   17.72076662
_cell_angle_alpha   91.32141852
_cell_angle_beta   90.73515467
_cell_angle_gamma   89.62741494
_symmetry_Int_Tables_number   1
_chemical_formula_structural   H18PbC13S(I2N)2
_chemical_formula_sum   'H72 Pb4 C52 S4 I16 N8'
_cell_volume   2715.51040038
_cell_formula_units_Z   4
loop_
 _symmetry_equiv_pos_site_id
 _symmetry_equiv_pos_as_xyz
  1  'x, y, z'
loop_
 _atom_site_type_symbol
 _atom_site_label
 _atom_site_symmetry_multiplicity
 _atom_site_fract_x
 _atom_site_fract_y
 _atom_site_fract_z
 _atom_site_occupancy
  H  H0  1  0.33574267  0.28926131  0.87640374  1
  H  H1  1  0.30458213  0.15867742  0.87063879  1
  H  H2  1  0.21288719  0.24977641  0.90074441  1
  H  H3  1  0.20788919  0.33373602  0.77777167  1
  H  H4  1  0.16730316  0.19506612  0.77276888  1
  H  H5  1  0.35664082  0.14061195  0.73780576  1
  H  H6  1  0.39637782  0.27769185  0.74259981  1
  H  H7  1  0.24389938  0.07000119  0.63106417  1
  H  H8  1  0.19301303  0.08965184  0.49665865  1
  H  H9  1  0.14073253  0.43388682  0.41408004  1
  H  H10  1  0.11659720  0.41475291  0.26597905  1
  H  H11  1  0.16992074  0.13505105  0.18185657  1
  H  H12  1  0.13116824  0.26883777  0.15935036  1
  H  H13  1  0.29330565  0.21634845  0.09918529  1
  H  H14  1  0.32353957  0.31836153  0.16115900  1
  H  H15  1  0.35885963  0.18926891  0.17869960  1
  H  H16  1  0.29527691  0.42279933  0.50770923  1
  H  H17  1  0.34364963  0.40325780  0.64282333  1
  H  H18  1  0.29235414  0.65245060  0.86570562  1
  H  H19  1  0.15965351  0.68458548  0.86745866  1
  H  H20  1  0.24929764  0.77381213  0.90039249  1
  H  H21  1  0.32824761  0.78833613  0.77552786  1
  H  H22  1  0.19005670  0.82912462  0.77708844  1
  H  H23  1  0.13322683  0.64483977  0.73222634  1
  H  H24  1  0.26877243  0.59911601  0.73532448  1
  H  H25  1  0.06709813  0.75751638  0.62912445  1
  H  H26  1  0.09006732  0.80974784  0.49613227  1
  H  H27  1  0.43500849  0.85822075  0.41490383  1
  H  H28  1  0.41471002  0.88462524  0.26755434  1
  H  H29  1  0.13556894  0.83865192  0.18547469  1
  H  H30  1  0.27052444  0.86735824  0.16117398  1
  H  H31  1  0.21065827  0.70530940  0.10039036  1
  H  H32  1  0.30548197  0.66646483  0.16466788  1
  H  H33  1  0.17279326  0.64895235  0.17910629  1
  H  H34  1  0.42283654  0.70584940  0.50665184  1
  H  H35  1  0.39991365  0.65629191  0.64014161  1
  H  H36  1  0.70212679  0.16857414  0.12603990  1
  H  H37  1  0.83569445  0.18668421  0.12761273  1
  H  H38  1  0.75311492  0.28803984  0.09935835  1
  H  H39  1  0.67057578  0.29346377  0.22535472  1
  H  H40  1  0.80817732  0.33532917  0.22453673  1
  H  H41  1  0.86816578  0.15050732  0.26218269  1
  H  H42  1  0.73372708  0.10407607  0.25687513  1
  H  H43  1  0.93297443  0.26025166  0.37056286  1
  H  H44  1  0.90915365  0.30962742  0.50534646  1
  H  H45  1  0.56177015  0.35194391  0.58872362  1
  H  H46  1  0.58138399  0.37827075  0.73692643  1
  H  H47  1  0.86517049  0.33739992  0.81476291  1
  H  H48  1  0.73244617  0.37407538  0.84111657  1
  H  H49  1  0.79808325  0.21565910  0.90199836  1
  H  H50  1  0.68878521  0.18391283  0.84958932  1
  H  H51  1  0.81394156  0.14623645  0.82139435  1
  H  H52  1  0.57876385  0.20284499  0.49107100  1
  H  H53  1  0.60235978  0.15624099  0.35535831  1
  H  H54  1  0.83943636  0.71013742  0.13031227  1
  H  H55  1  0.81271677  0.84346441  0.13127595  1
  H  H56  1  0.71696677  0.75598916  0.10032244  1
  H  H57  1  0.71192778  0.67453871  0.22463931  1
  H  H58  1  0.66846059  0.81241190  0.22431926  1
  H  H59  1  0.85229143  0.87258695  0.26704385  1
  H  H60  1  0.89958057  0.73720377  0.26230398  1
  H  H61  1  0.74094467  0.93689902  0.37308659  1
  H  H62  1  0.68866667  0.91162607  0.50572006  1
  H  H63  1  0.64282582  0.56401808  0.58325098  1
  H  H64  1  0.61578308  0.58327380  0.73096206  1
  H  H65  1  0.65443464  0.86259024  0.81446324  1
  H  H66  1  0.62850191  0.72670822  0.83805021  1
  H  H67  1  0.78520091  0.79625753  0.90091202  1
  H  H68  1  0.82853562  0.69637277  0.84017178  1
  H  H69  1  0.84532838  0.82820893  0.82155002  1
  H  H70  1  0.79592427  0.57907982  0.49060992  1
  H  H71  1  0.84618924  0.60435876  0.35720247  1
  Pb  Pb72  1  0.99485848  0.00622939  0.97785297  1
  Pb  Pb73  1  0.98387956  0.51448500  0.99895597  1
  Pb  Pb74  1  0.49228763  0.00379893  0.99787195  1
  Pb  Pb75  1  0.48201211  0.50057648  0.01742238  1
  C  C76  1  0.23595263  0.24967153  0.78217495  1
  C  C77  1  0.32837709  0.22377060  0.72829981  1
  C  C78  1  0.29636277  0.23571016  0.64665546  1
  C  C79  1  0.25447157  0.14793593  0.60434326  1
  C  C80  1  0.22657113  0.15856961  0.52841054  1
  C  C81  1  0.23977970  0.25787092  0.49251227  1
  C  C82  1  0.21136353  0.27244854  0.41284986  1
  C  C83  1  0.16545818  0.36311511  0.38072130  1
  C  C84  1  0.15234091  0.35287169  0.30151646  1
  C  C85  1  0.18824737  0.25465537  0.27271709  1
  C  C86  1  0.18964964  0.22074179  0.19165659  1
  C  C87  1  0.28190667  0.34589607  0.53505730  1
  C  C88  1  0.30945273  0.33470842  0.61089987  1
  C  C89  1  0.24523983  0.75951574  0.78095167  1
  C  C90  1  0.21706148  0.66969119  0.72365119  1
  C  C91  1  0.23181171  0.70338014  0.64361830  1
  C  C92  1  0.14533443  0.74667960  0.60228836  1
  C  C93  1  0.15809767  0.77551014  0.52742495  1
  C  C94  1  0.25824987  0.76189702  0.49201658  1
  C  C95  1  0.27389034  0.79029870  0.41326199  1
  C  C96  1  0.36428627  0.83487003  0.38148873  1
  C  C97  1  0.35357790  0.84880398  0.30273548  1
  C  C98  1  0.25516994  0.81469096  0.27417153  1
  C  C99  1  0.21997035  0.81335358  0.19377486  1
  C  C100  1  0.34527243  0.71909319  0.53382739  1
  C  C101  1  0.33200857  0.69058683  0.60865324  1
  C  C102  1  0.75410426  0.26570279  0.21782230  1
  C  C103  1  0.78399208  0.17483551  0.27157276  1
  C  C104  1  0.76883997  0.20619690  0.35332922  1
  C  C105  1  0.85465863  0.24872223  0.39666965  1
  C  C106  1  0.84156158  0.27573891  0.47279463  1
  C  C107  1  0.74180786  0.26068447  0.50790381  1
  C  C108  1  0.72534474  0.28758453  0.58790807  1
  C  C109  1  0.63329891  0.32984179  0.62129058  1
  C  C110  1  0.64351240  0.34345291  0.70052336  1
  C  C111  1  0.74294631  0.31104205  0.72808437  1
  C  C112  1  0.78003050  0.31501031  0.80816150  1
  C  C113  1  0.65583064  0.21770827  0.46428085  1
  C  C114  1  0.66929527  0.19114579  0.38817723  1
  C  C115  1  0.73870937  0.75842536  0.21883484  1
  C  C116  1  0.82867455  0.78808319  0.27521542  1
  C  C117  1  0.79613754  0.77215466  0.35566173  1
  C  C118  1  0.75213959  0.85788710  0.39853084  1
  C  C119  1  0.72335662  0.84394757  0.47341067  1
  C  C120  1  0.73778665  0.74319272  0.50756386  1
  C  C121  1  0.70947914  0.72634652  0.58637942  1
  C  C122  1  0.66538345  0.63501923  0.61723825  1
  C  C123  1  0.65140534  0.64484404  0.69619561  1
  C  C124  1  0.68522771  0.74323021  0.72592398  1
  C  C125  1  0.68260098  0.77865256  0.80660472  1
  C  C126  1  0.78167594  0.65697463  0.46434329  1
  C  C127  1  0.81020828  0.67146046  0.38952001  1
  S  S128  1  0.23747491  0.17398483  0.34409908  1
  S  S129  1  0.17513915  0.76623701  0.34497509  1
  S  S130  1  0.82436178  0.26466923  0.65557473  1
  S  S131  1  0.73349696  0.82446223  0.65586008  1
  I  I132  1  0.24522234  0.03090345  0.01640842  1
  I  I133  1  0.23125520  0.45624488  0.01578595  1
  I  I134  1  0.74665726  0.97926333  0.98485891  1
  I  I135  1  0.73709100  0.46652535  0.01534252  1
  I  I136  1  0.98950417  0.25645300  0.97692002  1
  I  I137  1  0.05191093  0.75998370  0.00495274  1
  I  I138  1  0.52140750  0.24851813  0.97062094  1
  I  I139  1  0.53122953  0.74811752  0.02635671  1
  I  I140  1  0.96426204  0.99520427  0.79286683  1
  I  I141  1  0.96931926  0.00837132  0.15629495  1
  I  I142  1  0.97012134  0.55149469  0.82130285  1
  I  I143  1  0.97849453  0.54965730  0.18093323  1
  I  I144  1  0.46628207  0.98904672  0.82173202  1
  I  I145  1  0.52211551  0.05877308  0.18030639  1
  I  I146  1  0.43570845  0.51168264  0.83392174  1
  I  I147  1  0.45285920  0.49664649  0.19444312  1
  N  N148  1  0.27388329  0.23591132  0.86237706  1
  N  N149  1  0.29816191  0.23835158  0.15590227  1
  N  N150  1  0.23604576  0.71554967  0.85896878  1
  N  N151  1  0.22960387  0.70138754  0.15747516  1
  N  N152  1  0.76225073  0.22523079  0.13718536  1
  N  N153  1  0.76823033  0.20780657  0.84714112  1
  N  N154  1  0.77927862  0.76781243  0.13963610  1
  N  N155  1  0.79220697  0.77293353  0.84468392  1
