# generated using pymatgen
data_H14PbC11S(I2N)2
_symmetry_space_group_name_H-M   'P 1'
_cell_length_a   12.52930572
_cell_length_b   12.40257871
_cell_length_c   15.58887670
_cell_angle_alpha   89.34413970
_cell_angle_beta   88.12418450
_cell_angle_gamma   89.33569139
_symmetry_Int_Tables_number   1
_chemical_formula_structural   H14PbC11S(I2N)2
_chemical_formula_sum   'H56 Pb4 C44 S4 I16 N8'
_cell_volume   2420.83509518
_cell_formula_units_Z   4
loop_
 _symmetry_equiv_pos_site_id
 _symmetry_equiv_pos_as_xyz
  1  'x, y, z'
loop_
 _atom_site_type_symbol
 _atom_site_label
 _atom_site_symmetry_multiplicity
 _atom_site_fract_x
 _atom_site_fract_y
 _atom_site_fract_z
 _atom_site_occupancy
  H  H0  1  0.35480546  0.32463765  0.80920809  1
  H  H1  1  0.33390680  0.19030035  0.80681199  1
  H  H2  1  0.27805769  0.26577173  0.88544102  1
  H  H3  1  0.13796737  0.23172403  0.79242814  1
  H  H4  1  0.17368657  0.37067290  0.78382623  1
  H  H5  1  0.17558787  0.10693805  0.67585469  1
  H  H6  1  0.20682218  0.08271347  0.51956519  1
  H  H7  1  0.34434958  0.06436954  0.40282780  1
  H  H8  1  0.35676548  0.07854347  0.23386065  1
  H  H9  1  0.25932189  0.20823443  0.12141087  1
  H  H10  1  0.24736803  0.34179310  0.14330862  1
  H  H11  1  0.36716407  0.28465647  0.13114403  1
  H  H12  1  0.30823424  0.41332098  0.49513990  1
  H  H13  1  0.27301682  0.43837871  0.65075926  1
  H  H14  1  0.31323710  0.62863951  0.80380458  1
  H  H15  1  0.18411022  0.66945308  0.80953898  1
  H  H16  1  0.27248787  0.71074182  0.88192457  1
  H  H17  1  0.24331912  0.85860822  0.78747895  1
  H  H18  1  0.37661253  0.80854083  0.77661726  1
  H  H19  1  0.11073486  0.82214370  0.67575575  1
  H  H20  1  0.08380220  0.79417260  0.52091078  1
  H  H21  1  0.06689842  0.65808988  0.40412308  1
  H  H22  1  0.08095787  0.65174129  0.23486280  1
  H  H23  1  0.21799167  0.77040685  0.11847284  1
  H  H24  1  0.34650232  0.75037728  0.14014109  1
  H  H25  1  0.26890915  0.64561333  0.12627633  1
  H  H26  1  0.41218514  0.68958297  0.48828012  1
  H  H27  1  0.43923051  0.72004850  0.64283571  1
  H  H28  1  0.68338630  0.13288586  0.18828783  1
  H  H29  1  0.81279709  0.16078520  0.19457373  1
  H  H30  1  0.74137004  0.21526061  0.11546914  1
  H  H31  1  0.76059734  0.35800925  0.20972216  1
  H  H32  1  0.62619348  0.31322330  0.21961808  1
  H  H33  1  0.88973729  0.31905132  0.32194277  1
  H  H34  1  0.91613610  0.29024966  0.47714246  1
  H  H35  1  0.93518037  0.15620162  0.59887391  1
  H  H36  1  0.91525680  0.14795302  0.76806024  1
  H  H37  1  0.77444510  0.25229352  0.88173474  1
  H  H38  1  0.64505499  0.25340768  0.85319803  1
  H  H39  1  0.71080307  0.13709002  0.86845447  1
  H  H40  1  0.58911924  0.18851626  0.50976518  1
  H  H41  1  0.56192825  0.22105134  0.35497795  1
  H  H42  1  0.86375130  0.67701756  0.19042938  1
  H  H43  1  0.83307466  0.81107036  0.19246179  1
  H  H44  1  0.78619212  0.72963007  0.11672171  1
  H  H45  1  0.64198240  0.76151921  0.21498002  1
  H  H46  1  0.68510314  0.62430027  0.22194709  1
  H  H47  1  0.67808359  0.89071322  0.32814513  1
  H  H48  1  0.70749614  0.91820684  0.48237272  1
  H  H49  1  0.84222315  0.93859392  0.59189849  1
  H  H50  1  0.85878380  0.92695577  0.76056675  1
  H  H51  1  0.77392234  0.79918167  0.88194353  1
  H  H52  1  0.75404535  0.66806235  0.86140280  1
  H  H53  1  0.87741437  0.71367190  0.85879411  1
  H  H54  1  0.81063278  0.58631793  0.50722289  1
  H  H55  1  0.77737553  0.55826435  0.35336332  1
  Pb  Pb56  1  0.01041571  0.00289561  0.01706946  1
  Pb  Pb57  1  0.98894274  0.49556411  0.99186171  1
  Pb  Pb58  1  0.50288989  0.99646304  0.98934068  1
  Pb  Pb59  1  0.49700318  0.50213872  0.99812517  1
  C  C60  1  0.19956940  0.28792168  0.76881258  1
  C  C61  1  0.22224161  0.27414266  0.67413861  1
  C  C62  1  0.20517399  0.17405026  0.63621499  1
  C  C63  1  0.22324513  0.16017421  0.54856617  1
  C  C64  1  0.26012969  0.24617491  0.49630058  1
  C  C65  1  0.27975282  0.22797717  0.40456026  1
  C  C66  1  0.31916975  0.13496420  0.36628651  1
  C  C67  1  0.32589539  0.14197708  0.27575149  1
  C  C68  1  0.29118887  0.24077660  0.24706953  1
  C  C69  1  0.27771357  0.34636581  0.53446507  1
  C  C70  1  0.25857347  0.36015957  0.62224507  1
  C  C71  1  0.29312581  0.79118201  0.76355349  1
  C  C72  1  0.27679271  0.77242771  0.66988709  1
  C  C73  1  0.17660955  0.79203813  0.63478347  1
  C  C74  1  0.16137752  0.77621593  0.54783174  1
  C  C75  1  0.24599030  0.73983917  0.49345902  1
  C  C76  1  0.22718661  0.72380885  0.40220833  1
  C  C77  1  0.13587189  0.68557064  0.36599246  1
  C  C78  1  0.14263850  0.68261058  0.27532764  1
  C  C79  1  0.23925849  0.71895920  0.24429135  1
  C  C80  1  0.34614933  0.71975394  0.52900742  1
  C  C81  1  0.36114769  0.73612698  0.61606378  1
  C  C82  1  0.70923954  0.29213301  0.23339239  1
  C  C83  1  0.72433360  0.27129475  0.32752137  1
  C  C84  1  0.82404122  0.28912648  0.36291530  1
  C  C85  1  0.83911889  0.27268654  0.45008696  1
  C  C86  1  0.75479685  0.23666082  0.50450225  1
  C  C87  1  0.77268736  0.22021239  0.59613999  1
  C  C88  1  0.86381252  0.18222899  0.63499860  1
  C  C89  1  0.85377369  0.17815908  0.72571607  1
  C  C90  1  0.75483193  0.21414164  0.75364386  1
  C  C91  1  0.65501979  0.21804070  0.46876108  1
  C  C92  1  0.64000733  0.23556506  0.38147676  1
  C  C93  1  0.70609828  0.70758439  0.23644309  1
  C  C94  1  0.72605119  0.72281776  0.33008567  1
  C  C95  1  0.70777300  0.82407259  0.36730792  1
  C  C96  1  0.72477967  0.83974731  0.45387770  1
  C  C97  1  0.76186483  0.75451948  0.50574166  1
  C  C98  1  0.78135999  0.77499792  0.59609527  1
  C  C99  1  0.81927825  0.86876157  0.63086089  1
  C  C100  1  0.82743630  0.86366055  0.72102998  1
  C  C101  1  0.79454033  0.76575389  0.75305562  1
  C  C102  1  0.78031945  0.65297577  0.46830116  1
  C  C103  1  0.76225187  0.63736931  0.38157746  1
  S  S104  1  0.25069220  0.32599941  0.32818639  1
  S  S105  1  0.32293874  0.75692980  0.32342923  1
  S  S106  1  0.67352341  0.25219571  0.67196626  1
  S  S107  1  0.75457929  0.67906951  0.67553461  1
  I  I108  1  0.25302887  0.02381747  0.05968324  1
  I  I109  1  0.23877457  0.47864480  0.01365863  1
  I  I110  1  0.75410918  0.96868407  0.95625825  1
  I  I111  1  0.73909586  0.55371972  0.00110134  1
  I  I112  1  0.92810660  0.25153006  0.98135074  1
  I  I113  1  0.02654544  0.75085356  0.02167404  1
  I  I114  1  0.53277448  0.24977780  0.02337247  1
  I  I115  1  0.44677566  0.75171330  0.97686069  1
  I  I116  1  0.07370233  0.99626284  0.82144994  1
  I  I117  1  0.93478419  0.99251777  0.21777872  1
  I  I118  1  0.01800032  0.55581136  0.78986019  1
  I  I119  1  0.95598255  0.48081940  0.19483877  1
  I  I120  1  0.47861558  0.04891122  0.79009207  1
  I  I121  1  0.55528546  0.97535783  0.18864359  1
  I  I122  1  0.47054591  0.48534712  0.78711003  1
  I  I123  1  0.47129767  0.51005458  0.19829308  1
  N  N124  1  0.29711393  0.26487383  0.82073745  1
  N  N125  1  0.29021640  0.27179878  0.15699161  1
  N  N126  1  0.26272708  0.69408253  0.81778260  1
  N  N127  1  0.27012730  0.72231711  0.15329496  1
  N  N128  1  0.73893315  0.19504760  0.17990952  1
  N  N129  1  0.71821810  0.21572259  0.84308319  1
  N  N130  1  0.80346217  0.73415509  0.18090529  1
  N  N131  1  0.79952285  0.73442963  0.84272869  1
