# generated using pymatgen
data_H15PbC11SI4N3
_symmetry_space_group_name_H-M   'P 1'
_cell_length_a   12.58852343
_cell_length_b   12.52257783
_cell_length_c   15.90066864
_cell_angle_alpha   90.37132238
_cell_angle_beta   90.03486774
_cell_angle_gamma   89.99139006
_symmetry_Int_Tables_number   1
_chemical_formula_structural   H15PbC11SI4N3
_chemical_formula_sum   'H60 Pb4 C44 S4 I16 N12'
_cell_volume   2506.54043009
_cell_formula_units_Z   4
loop_
 _symmetry_equiv_pos_site_id
 _symmetry_equiv_pos_as_xyz
  1  'x, y, z'
loop_
 _atom_site_type_symbol
 _atom_site_label
 _atom_site_symmetry_multiplicity
 _atom_site_fract_x
 _atom_site_fract_y
 _atom_site_fract_z
 _atom_site_occupancy
  H  H0  1  0.32838125  0.38628196  0.80931425  1
  H  H1  1  0.19693526  0.41035638  0.80484659  1
  H  H2  1  0.25108918  0.36406039  0.89362411  1
  H  H3  1  0.29019560  0.19411184  0.83251782  1
  H  H4  1  0.15367581  0.22513083  0.82280476  1
  H  H5  1  0.20290194  0.06932057  0.70628126  1
  H  H6  1  0.20914457  0.05684588  0.54915399  1
  H  H7  1  0.32293606  0.05919789  0.42165818  1
  H  H8  1  0.29588204  0.08654477  0.25870045  1
  H  H9  1  0.18816274  0.21303761  0.15834692  1
  H  H10  1  0.12234253  0.32478979  0.20358905  1
  H  H11  1  0.34000667  0.31353556  0.13652138  1
  H  H12  1  0.31386552  0.40372492  0.21047196  1
  H  H13  1  0.24589221  0.40419081  0.12030797  1
  H  H14  1  0.29018436  0.39218306  0.54575500  1
  H  H15  1  0.39019069  0.66322333  0.80646855  1
  H  H16  1  0.41610424  0.79493895  0.80114668  1
  H  H17  1  0.37475038  0.74158662  0.89161644  1
  H  H18  1  0.20121895  0.70451408  0.83389453  1
  H  H19  1  0.23409796  0.84209426  0.82634574  1
  H  H20  1  0.07501660  0.79516994  0.71012530  1
  H  H21  1  0.06144658  0.79171371  0.55322608  1
  H  H22  1  0.06043933  0.68727357  0.42241241  1
  H  H23  1  0.08969481  0.71900990  0.26030910  1
  H  H24  1  0.22134657  0.81603824  0.16141734  1
  H  H25  1  0.33305854  0.88101532  0.20663740  1
  H  H26  1  0.31892184  0.66047028  0.14172777  1
  H  H27  1  0.41160229  0.69012650  0.21272166  1
  H  H28  1  0.40836294  0.75418447  0.12137417  1
  H  H29  1  0.39445142  0.70817561  0.54523846  1
  H  H30  1  0.62131955  0.14425211  0.18415478  1
  H  H31  1  0.58707508  0.26908244  0.20917304  1
  H  H32  1  0.62573553  0.23895385  0.11026794  1
  H  H33  1  0.80447322  0.19522248  0.16746335  1
  H  H34  1  0.76774403  0.33230734  0.17235224  1
  H  H35  1  0.92916374  0.28611824  0.29035920  1
  H  H36  1  0.94209700  0.28604522  0.44728191  1
  H  H37  1  0.94096211  0.17778015  0.57557232  1
  H  H38  1  0.91038654  0.19728340  0.73884576  1
  H  H39  1  0.78118631  0.29646615  0.84075010  1
  H  H40  1  0.67075097  0.36541769  0.79706831  1
  H  H41  1  0.68230663  0.14782094  0.86382441  1
  H  H42  1  0.59475914  0.16759033  0.78619376  1
  H  H43  1  0.58822885  0.23938685  0.87469213  1
  H  H44  1  0.60660747  0.21325039  0.45477174  1
  H  H45  1  0.85487095  0.61623210  0.18439090  1
  H  H46  1  0.73071702  0.58375668  0.20948248  1
  H  H47  1  0.75982647  0.62292900  0.11102131  1
  H  H48  1  0.80702984  0.80183080  0.16924296  1
  H  H49  1  0.67054648  0.76741491  0.17495348  1
  H  H50  1  0.72635638  0.92902199  0.29250848  1
  H  H51  1  0.72128327  0.94152306  0.44954036  1
  H  H52  1  0.82226689  0.93832708  0.58001869  1
  H  H53  1  0.79958183  0.90657813  0.74240963  1
  H  H54  1  0.69387102  0.77346398  0.84124008  1
  H  H55  1  0.63518637  0.65807757  0.79484299  1
  H  H56  1  0.85185268  0.68586990  0.86247881  1
  H  H57  1  0.83444021  0.59416915  0.78726464  1
  H  H58  1  0.76637514  0.58739712  0.87735472  1
  H  H59  1  0.78453717  0.60241451  0.45622835  1
  Pb  Pb60  1  0.00632859  0.99546324  0.00515217  1
  Pb  Pb61  1  0.01068535  0.49999358  0.99389222  1
  Pb  Pb62  1  0.50804275  0.98851792  0.99504865  1
  Pb  Pb63  1  0.51107661  0.49092013  0.00066467  1
  C  C64  1  0.23352162  0.24711723  0.80070766  1
  C  C65  1  0.24164676  0.23765623  0.70649808  1
  C  C66  1  0.22318339  0.13845276  0.66815956  1
  C  C67  1  0.22665444  0.13207897  0.58119798  1
  C  C68  1  0.25008965  0.22383582  0.53384818  1
  C  C69  1  0.25322346  0.21634331  0.44197727  1
  C  C70  1  0.28799889  0.13039127  0.39412548  1
  C  C71  1  0.27396327  0.14486990  0.30675128  1
  C  C72  1  0.22795022  0.24146557  0.28747803  1
  C  C73  1  0.19701579  0.27956584  0.20289756  1
  C  C74  1  0.26932474  0.31885292  0.57896757  1
  C  C75  1  0.25381939  0.76180805  0.80240501  1
  C  C76  1  0.24238686  0.75551115  0.70820462  1
  C  C77  1  0.14348806  0.77502775  0.67118610  1
  C  C78  1  0.13644251  0.77307057  0.58423200  1
  C  C79  1  0.22720568  0.74980605  0.53570605  1
  C  C80  1  0.21982816  0.74912264  0.44400284  1
  C  C81  1  0.13286847  0.72016373  0.39563482  1
  C  C82  1  0.14852249  0.73613345  0.30867682  1
  C  C83  1  0.24731553  0.77675303  0.29021648  1
  C  C84  1  0.28703577  0.80662300  0.20598132  1
  C  C85  1  0.32192767  0.72902283  0.57953479  1
  C  C86  1  0.75021867  0.25270815  0.19765893  1
  C  C87  1  0.76084921  0.25128270  0.29197184  1
  C  C88  1  0.85987973  0.26967761  0.32923609  1
  C  C89  1  0.86670916  0.26897829  0.41618402  1
  C  C90  1  0.77545901  0.24797636  0.46459897  1
  C  C91  1  0.78299766  0.24434916  0.55624808  1
  C  C92  1  0.86890794  0.21034266  0.60356838  1
  C  C93  1  0.85286258  0.22086012  0.69117021  1
  C  C94  1  0.75497812  0.26323497  0.71089340  1
  C  C95  1  0.71507053  0.28999057  0.79612693  1
  C  C96  1  0.67997467  0.23076240  0.42062657  1
  C  C97  1  0.74989193  0.74787708  0.19951180  1
  C  C98  1  0.75293557  0.75844593  0.29376796  1
  C  C99  1  0.73850067  0.85879415  0.33132706  1
  C  C100  1  0.73695917  0.86538322  0.41824105  1
  C  C101  1  0.75372707  0.77287138  0.46639061  1
  C  C102  1  0.75534344  0.78006380  0.55804510  1
  C  C103  1  0.78877901  0.86592527  0.60673255  1
  C  C104  1  0.77629914  0.84923851  0.69395298  1
  C  C105  1  0.73304641  0.75094734  0.71190670  1
  C  C106  1  0.70663665  0.70824409  0.79606570  1
  C  C107  1  0.76917088  0.67651984  0.42219428  1
  S  S108  1  0.20219112  0.31532113  0.37781471  1
  S  S109  1  0.32150418  0.79641796  0.38085042  1
  S  S110  1  0.68211645  0.29036435  0.62108694  1
  S  S111  1  0.70747324  0.67868651  0.62102761  1
  I  I112  1  0.25927339  0.95889072  0.00772253  1
  I  I113  1  0.26001795  0.56191919  0.00243922  1
  I  I114  1  0.75049589  0.06539244  0.99441778  1
  I  I115  1  0.75477036  0.44032574  0.99821827  1
  I  I116  1  0.04980913  0.25577376  0.99471808  1
  I  I117  1  0.93243962  0.74821680  0.00030345  1
  I  I118  1  0.43907137  0.24563658  0.99925338  1
  I  I119  1  0.56225812  0.73911109  0.00272823  1
  I  I120  1  0.01219093  0.99473022  0.80447163  1
  I  I121  1  0.97942536  0.99971749  0.20222420  1
  I  I122  1  0.02555101  0.50508457  0.78774545  1
  I  I123  1  0.01568418  0.50785139  0.19555395  1
  I  I124  1  0.48601875  0.98498149  0.79038836  1
  I  I125  1  0.52388466  0.97783794  0.19722455  1
  I  I126  1  0.49556486  0.48832012  0.79703942  1
  I  I127  1  0.52114347  0.49205832  0.20873795  1
  N  N128  1  0.25440905  0.35837120  0.82899303  1
  N  N129  1  0.27872939  0.35490850  0.16578477  1
  N  N130  1  0.26486355  0.32608298  0.66307109  1
  N  N131  1  0.36524004  0.73818093  0.82724299  1
  N  N132  1  0.36091277  0.72314267  0.16885159  1
  N  N133  1  0.32983349  0.73230413  0.66352195  1
  N  N134  1  0.63966897  0.22487878  0.17312880  1
  N  N135  1  0.64041751  0.20687697  0.83103567  1
  N  N136  1  0.67241753  0.23304165  0.33663160  1
  N  N137  1  0.77505658  0.63641118  0.17395887  1
  N  N138  1  0.79427901  0.63963477  0.83181843  1
  N  N139  1  0.76746320  0.66890203  0.33812455  1
