# generated using pymatgen
data_H16PbC12S(I2N)2
_symmetry_space_group_name_H-M   'P 1'
_cell_length_a   12.24446789
_cell_length_b   12.52052194
_cell_length_c   15.85655765
_cell_angle_alpha   87.46153267
_cell_angle_beta   86.79774003
_cell_angle_gamma   89.82424227
_symmetry_Int_Tables_number   1
_chemical_formula_structural   H16PbC12S(I2N)2
_chemical_formula_sum   'H64 Pb4 C48 S4 I16 N8'
_cell_volume   2424.74544884
_cell_formula_units_Z   4
loop_
 _symmetry_equiv_pos_site_id
 _symmetry_equiv_pos_as_xyz
  1  'x, y, z'
loop_
 _atom_site_type_symbol
 _atom_site_label
 _atom_site_symmetry_multiplicity
 _atom_site_fract_x
 _atom_site_fract_y
 _atom_site_fract_z
 _atom_site_occupancy
  H  H0  1  0.37077224  0.18373638  0.81476475  1
  H  H1  1  0.29007187  0.20516984  0.90110171  1
  H  H2  1  0.34485213  0.30989857  0.84343057  1
  H  H3  1  0.14855168  0.28482427  0.82356787  1
  H  H4  1  0.18025619  0.15489472  0.78815136  1
  H  H5  1  0.26174408  0.44167572  0.74998783  1
  H  H6  1  0.31900698  0.52393188  0.60925193  1
  H  H7  1  0.32306876  0.41555397  0.48184342  1
  H  H8  1  0.32455865  0.05124686  0.50962156  1
  H  H9  1  0.30322335  0.99822149  0.35183044  1
  H  H10  1  0.14679068  0.19821430  0.21765270  1
  H  H11  1  0.22370450  0.07752662  0.21197063  1
  H  H12  1  0.38636541  0.17268929  0.18443998  1
  H  H13  1  0.32805794  0.29473273  0.19727024  1
  H  H14  1  0.29670945  0.21806258  0.11742048  1
  H  H15  1  0.21767438  0.13921581  0.63680188  1
  H  H16  1  0.15318286  0.65796795  0.81243968  1
  H  H17  1  0.17258896  0.73733689  0.89139326  1
  H  H18  1  0.27906955  0.67017233  0.85070890  1
  H  H19  1  0.28907137  0.85715548  0.80337603  1
  H  H20  1  0.15596972  0.84544026  0.76449879  1
  H  H21  1  0.44175337  0.73625338  0.74400534  1
  H  H22  1  0.52811926  0.67297223  0.60975694  1
  H  H23  1  0.42140366  0.66948342  0.48140232  1
  H  H24  1  0.04925582  0.66497815  0.50763604  1
  H  H25  1  0.99685588  0.68060696  0.34828300  1
  H  H26  1  0.20270301  0.83643004  0.20168585  1
  H  H27  1  0.07725787  0.76586440  0.20258083  1
  H  H28  1  0.17150708  0.60185721  0.18477300  1
  H  H29  1  0.29604423  0.65463727  0.19213090  1
  H  H30  1  0.21887001  0.69161169  0.11078924  1
  H  H31  1  0.13779549  0.78664958  0.62268353  1
  H  H32  1  0.81645091  0.14497296  0.18469106  1
  H  H33  1  0.82076375  0.23234914  0.10178323  1
  H  H34  1  0.69919302  0.18700222  0.14020434  1
  H  H35  1  0.71793288  0.36371754  0.18463126  1
  H  H36  1  0.85060952  0.33331688  0.21992067  1
  H  H37  1  0.55715319  0.24856753  0.25211079  1
  H  H38  1  0.47084979  0.18359979  0.39083140  1
  H  H39  1  0.58012823  0.17207789  0.51790514  1
  H  H40  1  0.95314236  0.16327843  0.49374876  1
  H  H41  1  0.00608236  0.19055222  0.65039415  1
  H  H42  1  0.81061661  0.36155250  0.77837076  1
  H  H43  1  0.92754688  0.27791272  0.78777236  1
  H  H44  1  0.80984845  0.12765947  0.81874313  1
  H  H45  1  0.69530713  0.20337463  0.81069698  1
  H  H46  1  0.78345541  0.22360658  0.88615077  1
  H  H47  1  0.86562533  0.28071120  0.36665335  1
  H  H48  1  0.83891030  0.84492248  0.18822069  1
  H  H49  1  0.74901485  0.84273187  0.11321118  1
  H  H50  1  0.81458620  0.73012227  0.13781406  1
  H  H51  1  0.63466508  0.71332738  0.19866666  1
  H  H52  1  0.64390433  0.84137347  0.24164915  1
  H  H53  1  0.75384774  0.56226837  0.25287209  1
  H  H54  1  0.81958174  0.47470889  0.38499137  1
  H  H55  1  0.83259823  0.57839923  0.51346673  1
  H  H56  1  0.83345665  0.94687074  0.49004517  1
  H  H57  1  0.81019162  1.00165456  0.64871703  1
  H  H58  1  0.64456737  0.80828745  0.78968084  1
  H  H59  1  0.72372659  0.92530589  0.79317869  1
  H  H60  1  0.87406763  0.83034547  0.83433236  1
  H  H61  1  0.82846286  0.70892333  0.81229196  1
  H  H62  1  0.76825554  0.77527580  0.89234135  1
  H  H63  1  0.71896990  0.85989017  0.37804092  1
  Pb  Pb64  1  0.99239799  1.00187162  0.01159680  1
  Pb  Pb65  1  0.99819805  0.49922562  0.00057446  1
  Pb  Pb66  1  0.48160943  0.97789353  0.98823103  1
  Pb  Pb67  1  0.51197502  0.48563841  -0.00104656  1
  C  C68  1  0.21046304  0.23721545  0.78907515  1
  C  C69  1  0.23810409  0.28509939  0.70215457  1
  C  C70  1  0.26452776  0.39388012  0.69396872  1
  C  C71  1  0.29537079  0.44027087  0.61502809  1
  C  C72  1  0.29707545  0.37951242  0.54358628  1
  C  C73  1  0.26745522  0.27088428  0.55016482  1
  C  C74  1  0.26404562  0.20961669  0.47395687  1
  C  C75  1  0.29222280  0.10425145  0.46065692  1
  C  C76  1  0.28135571  0.07594082  0.37596778  1
  C  C77  1  0.24334110  0.15900120  0.32532382  1
  C  C78  1  0.22393818  0.15949498  0.23358932  1
  C  C79  1  0.23987541  0.22371340  0.63064839  1
  C  C80  1  0.23365001  0.80360429  0.77311949  1
  C  C81  1  0.28449266  0.76528163  0.69150679  1
  C  C82  1  0.39456178  0.73376962  0.68768154  1
  C  C83  1  0.44328949  0.69945400  0.61213263  1
  C  C84  1  0.38330165  0.69790375  0.54011426  1
  C  C85  1  0.27238153  0.72842064  0.54283208  1
  C  C86  1  0.21075516  0.72623300  0.46636219  1
  C  C87  1  0.10410758  0.69527203  0.45564804  1
  C  C88  1  0.07605918  0.70329596  0.37003208  1
  C  C89  1  0.16075114  0.74153483  0.31600636  1
  C  C90  1  0.16134390  0.76154182  0.22294115  1
  C  C91  1  0.22338511  0.76149383  0.61970635  1
  C  C92  1  0.76757084  0.30195856  0.21583362  1
  C  C93  1  0.71696105  0.26588431  0.30062152  1
  C  C94  1  0.60558239  0.24011737  0.30777778  1
  C  C95  1  0.55696159  0.20548964  0.38559651  1
  C  C96  1  0.61848172  0.19926635  0.45698514  1
  C  C97  1  0.73006648  0.22710542  0.45154792  1
  C  C98  1  0.79186708  0.22804279  0.52815853  1
  C  C99  1  0.89842292  0.19730377  0.54207661  1
  C  C100  1  0.92688341  0.21158171  0.62631325  1
  C  C101  1  0.84297097  0.25467978  0.67596921  1
  C  C102  1  0.84400149  0.28190519  0.76622608  1
  C  C103  1  0.77918407  0.25856783  0.37202411  1
  C  C104  1  0.68932893  0.76773639  0.22881410  1
  C  C105  1  0.73361223  0.71662507  0.30730132  1
  C  C106  1  0.76175251  0.60804281  0.30921476  1
  C  C107  1  0.79774051  0.55904914  0.38330604  1
  C  C108  1  0.80490666  0.61738840  0.45555798  1
  C  C109  1  0.77787816  0.72674210  0.45481177  1
  C  C110  1  0.78085258  0.78646579  0.53203015  1
  C  C111  1  0.80588247  0.89262853  0.54245688  1
  C  C112  1  0.79403392  0.92181027  0.62784194  1
  C  C113  1  0.75927475  0.83833270  0.68262216  1
  C  C114  1  0.72623073  0.84216296  0.77422496  1
  C  C115  1  0.74292407  0.77580333  0.37942117  1
  S  S116  1  0.22066614  0.27202097  0.38216768  1
  S  S117  1  0.27508500  0.76682317  0.37048274  1
  S  S118  1  0.72878730  0.27765274  0.61874272  1
  S  S119  1  0.74302317  0.72339230  0.62858906  1
  I  I120  1  0.23698342  0.06323893  0.01141725  1
  I  I121  1  0.25578994  0.47101242  0.96061674  1
  I  I122  1  0.73768314  0.97669927  0.99284869  1
  I  I123  1  0.75206642  0.57325937  0.03837112  1
  I  I124  1  0.95691372  0.25520873  0.98141133  1
  I  I125  1  0.04019718  0.75533389  0.01593332  1
  I  I126  1  0.54555270  0.23805973  0.02942645  1
  I  I127  1  0.47524392  0.74043118  0.93696492  1
  I  I128  1  0.99199251  0.99919679  0.80807158  1
  I  I129  1  0.95607547  0.00109850  0.21882066  1
  I  I130  1  0.97732197  0.55741105  0.79592200  1
  I  I131  1  0.04299303  0.45352026  0.19634675  1
  I  I132  1  0.50416249  0.04564061  0.78689090  1
  I  I133  1  0.46829844  0.97094985  0.19113135  1
  I  I134  1  0.55786793  0.43981090  0.80537873  1
  I  I135  1  0.44069357  0.49584379  0.20345887  1
  N  N136  1  0.31018587  0.23506124  0.84000091  1
  N  N137  1  0.31427830  0.21672190  0.18056394  1
  N  N138  1  0.20935750  0.71149366  0.83499957  1
  N  N139  1  0.21699215  0.67310547  0.17494618  1
  N  N140  1  0.77565360  0.21032634  0.15766395  1
  N  N141  1  0.77723546  0.20396252  0.82376712  1
  N  N142  1  0.77918033  0.79734898  0.16364987  1
  N  N143  1  0.80350001  0.78414235  0.83174329  1
