# generated using pymatgen
data_H15PbC11SI4N3
_symmetry_space_group_name_H-M   'P 1'
_cell_length_a   12.67434169
_cell_length_b   12.18310383
_cell_length_c   16.39186379
_cell_angle_alpha   88.91539752
_cell_angle_beta   87.94777787
_cell_angle_gamma   90.16058047
_symmetry_Int_Tables_number   1
_chemical_formula_structural   H15PbC11SI4N3
_chemical_formula_sum   'H60 Pb4 C44 S4 I16 N12'
_cell_volume   2529.02193624
_cell_formula_units_Z   4
loop_
 _symmetry_equiv_pos_site_id
 _symmetry_equiv_pos_as_xyz
  1  'x, y, z'
loop_
 _atom_site_type_symbol
 _atom_site_label
 _atom_site_symmetry_multiplicity
 _atom_site_fract_x
 _atom_site_fract_y
 _atom_site_fract_z
 _atom_site_occupancy
  H  H0  1  0.17236097  0.18909697  0.82058908  1
  H  H1  1  0.15065907  0.32563816  0.80895655  1
  H  H2  1  0.21433013  0.28090878  0.88939499  1
  H  H3  1  0.33979793  0.36316267  0.79704288  1
  H  H4  1  0.36283298  0.21942912  0.80722428  1
  H  H5  1  0.28827550  0.44278769  0.66387088  1
  H  H6  1  0.25598186  0.41739895  0.51806871  1
  H  H7  1  0.19447917  0.04284833  0.29982194  1
  H  H8  1  0.14238400  0.17256857  0.18048549  1
  H  H9  1  0.10846544  0.31041394  0.20546023  1
  H  H10  1  0.24018657  0.32562338  0.10404516  1
  H  H11  1  0.30258285  0.35259435  0.18861741  1
  H  H12  1  0.31707344  0.23025521  0.14514829  1
  H  H13  1  0.27389368  0.06563946  0.55291742  1
  H  H14  1  0.30761657  0.09168750  0.69984815  1
  H  H15  1  0.20261502  0.83783407  0.81814395  1
  H  H16  1  0.33293652  0.85279361  0.80361437  1
  H  H17  1  0.28824346  0.79028050  0.88800891  1
  H  H18  1  0.36091885  0.65412329  0.80109252  1
  H  H19  1  0.22187767  0.63533375  0.81460900  1
  H  H20  1  0.43797493  0.70619550  0.66416768  1
  H  H21  1  0.41259148  0.74100703  0.51700422  1
  H  H22  1  0.05231417  0.80272639  0.30250173  1
  H  H23  1  0.17497474  0.85817459  0.17999667  1
  H  H24  1  0.30748503  0.89670424  0.19937824  1
  H  H25  1  0.30981475  0.75170510  0.10462230  1
  H  H26  1  0.35617188  0.70210525  0.19077669  1
  H  H27  1  0.23126180  0.67006332  0.16730508  1
  H  H28  1  0.07511545  0.72773446  0.55888615  1
  H  H29  1  0.10071130  0.69257595  0.70713469  1
  H  H30  1  0.79413359  0.29893171  0.15235846  1
  H  H31  1  0.66832261  0.32987615  0.18034910  1
  H  H32  1  0.69330276  0.24649868  0.10318141  1
  H  H33  1  0.63635403  0.12955341  0.20865731  1
  H  H34  1  0.77474132  0.11162406  0.19310913  1
  H  H35  1  0.56341714  0.20535084  0.33671354  1
  H  H36  1  0.59026289  0.24394178  0.48168102  1
  H  H37  1  0.95201181  0.29362499  0.69578890  1
  H  H38  1  0.83246411  0.33769259  0.81942459  1
  H  H39  1  0.70478149  0.38694873  0.79561166  1
  H  H40  1  0.67346553  0.25614396  0.89490038  1
  H  H41  1  0.64460926  0.18645326  0.81266688  1
  H  H42  1  0.75739641  0.16414970  0.85911689  1
  H  H43  1  0.92736691  0.22521525  0.43894759  1
  H  H44  1  0.90005477  0.18512458  0.29285923  1
  H  H45  1  0.68581471  0.78771621  0.17466048  1
  H  H46  1  0.67704816  0.65098692  0.18156104  1
  H  H47  1  0.75011116  0.70852795  0.10514762  1
  H  H48  1  0.86471419  0.63157662  0.20430162  1
  H  H49  1  0.87932313  0.77609867  0.19077501  1
  H  H50  1  0.79604374  0.55339101  0.33640285  1
  H  H51  1  0.75786038  0.58158028  0.48295652  1
  H  H52  1  0.70300330  0.95634598  0.70313369  1
  H  H53  1  0.65815456  0.82602007  0.82686332  1
  H  H54  1  0.62005456  0.68907275  0.80343005  1
  H  H55  1  0.75401434  0.66356294  0.89271800  1
  H  H56  1  0.81856468  0.64730115  0.80446566  1
  H  H57  1  0.83063711  0.76396484  0.85434030  1
  H  H58  1  0.77057803  0.93292098  0.44246963  1
  H  H59  1  0.80849425  0.90405340  0.29476582  1
  Pb  Pb60  1  0.01914580  0.01158881  0.99838313  1
  Pb  Pb61  1  0.02706876  0.51591735  0.00326321  1
  Pb  Pb62  1  0.51605194  0.98353515  0.00550145  1
  Pb  Pb63  1  0.51376441  0.49334226  0.00636446  1
  C  C64  1  0.30977200  0.28170823  0.78211584  1
  C  C65  1  0.29762851  0.26860053  0.69213722  1
  C  C66  1  0.28469526  0.35982028  0.63995189  1
  C  C67  1  0.26690856  0.34523089  0.55740914  1
  C  C68  1  0.26162425  0.23889321  0.52565884  1
  C  C69  1  0.23852716  0.21739863  0.44056109  1
  C  C70  1  0.20699153  0.11941748  0.33146003  1
  C  C71  1  0.19684438  0.22201628  0.29562250  1
  C  C72  1  0.16959508  0.24716357  0.21004329  1
  C  C73  1  0.27743917  0.14774810  0.57788791  1
  C  C74  1  0.29544882  0.16279769  0.65987976  1
  C  C75  1  0.28372438  0.68811814  0.78593321  1
  C  C76  1  0.27076828  0.70024023  0.69571663  1
  C  C77  1  0.35823441  0.71198365  0.64140700  1
  C  C78  1  0.34376462  0.73096619  0.55846159  1
  C  C79  1  0.24142281  0.73826274  0.52849973  1
  C  C80  1  0.22052825  0.76224282  0.44292478  1
  C  C81  1  0.12573996  0.79332576  0.33432931  1
  C  C82  1  0.22426054  0.80689701  0.29703506  1
  C  C83  1  0.24754377  0.83221625  0.20939534  1
  C  C84  1  0.15398200  0.72326558  0.58293111  1
  C  C85  1  0.16882518  0.70468437  0.66537685  1
  C  C86  1  0.71366834  0.16780816  0.21672338  1
  C  C87  1  0.72994745  0.19523887  0.30430241  1
  C  C88  1  0.64350776  0.21129714  0.35859505  1
  C  C89  1  0.65885555  0.23269232  0.44053621  1
  C  C90  1  0.76143420  0.23823645  0.47019955  1
  C  C91  1  0.78288305  0.25841263  0.55590738  1
  C  C92  1  0.87827352  0.28287102  0.66472858  1
  C  C93  1  0.78023538  0.28832589  0.70363952  1
  C  C94  1  0.75866535  0.31652655  0.79026866  1
  C  C95  1  0.84810356  0.22232983  0.41553743  1
  C  C96  1  0.83232211  0.20111882  0.33388408  1
  C  C97  1  0.82693522  0.71089680  0.21602850  1
  C  C98  1  0.80265861  0.72685623  0.30527856  1
  C  C99  1  0.78898538  0.63679880  0.35919761  1
  C  C100  1  0.76780260  0.65294946  0.44203353  1
  C  C101  1  0.76045378  0.75989339  0.47260526  1
  C  C102  1  0.73942842  0.78200020  0.55902191  1
  C  C103  1  0.71373252  0.87982413  0.67055180  1
  C  C104  1  0.70656282  0.77728803  0.70749864  1
  C  C105  1  0.68279053  0.75134209  0.79501147  1
  C  C106  1  0.77486905  0.85020985  0.41843146  1
  C  C107  1  0.79541848  0.83350330  0.33590998  1
  S  S108  1  0.21636046  0.32127722  0.36788116  1
  S  S109  1  0.31984102  0.78815199  0.36840035  1
  S  S110  1  0.68391208  0.27290293  0.63238464  1
  S  S111  1  0.72225641  0.67798747  0.63382526  1
  I  I112  1  0.26335886  0.02331235  0.02510201  1
  I  I113  1  0.26472682  0.45686186  0.97785822  1
  I  I114  1  0.76062828  0.02829510  0.98990945  1
  I  I115  1  0.75826954  0.50256167  0.00728836  1
  I  I116  1  0.97911116  0.26779472  0.02697241  1
  I  I117  1  0.95110581  0.76442783  0.99517922  1
  I  I118  1  0.50511102  0.23836408  0.03285083  1
  I  I119  1  0.44682193  0.73859729  0.98039637  1
  I  I120  1  0.06981970  0.00470040  0.80024391  1
  I  I121  1  0.98445650  0.99609434  0.18850693  1
  I  I122  1  0.01096063  0.50127526  0.80742048  1
  I  I123  1  0.08297535  0.54077302  0.19334702  1
  I  I124  1  0.49829054  0.01618849  0.80893561  1
  I  I125  1  0.53377903  0.91596723  0.19590307  1
  I  I126  1  0.52628457  0.48802545  0.81097031  1
  I  I127  1  0.51314376  0.50163062  0.20691734  1
  N  N128  1  0.20485709  0.26735660  0.82787574  1
  N  N129  1  0.23017305  0.11729947  0.41177231  1
  N  N130  1  0.26325048  0.29109667  0.15937537  1
  N  N131  1  0.27500193  0.79874075  0.82613589  1
  N  N132  1  0.12406944  0.76891654  0.41547337  1
  N  N133  1  0.28878599  0.73272720  0.16508528  1
  N  N134  1  0.71860877  0.26786958  0.16038672  1
  N  N135  1  0.87929957  0.26664292  0.58297484  1
  N  N136  1  0.70599896  0.22559698  0.84120116  1
  N  N137  1  0.72896898  0.71505921  0.16635683  1
  N  N138  1  0.73157680  0.88193403  0.58832411  1
  N  N139  1  0.77688461  0.70455914  0.83851277  1
