# generated using pymatgen
data_H15PbC11SI4N3
_symmetry_space_group_name_H-M   'P 1'
_cell_length_a   12.30266250
_cell_length_b   12.21458087
_cell_length_c   16.65601364
_cell_angle_alpha   91.09691794
_cell_angle_beta   91.43366169
_cell_angle_gamma   88.54835935
_symmetry_Int_Tables_number   1
_chemical_formula_structural   H15PbC11SI4N3
_chemical_formula_sum   'H60 Pb4 C44 S4 I16 N12'
_cell_volume   2500.91463073
_cell_formula_units_Z   4
loop_
 _symmetry_equiv_pos_site_id
 _symmetry_equiv_pos_as_xyz
  1  'x, y, z'
loop_
 _atom_site_type_symbol
 _atom_site_label
 _atom_site_symmetry_multiplicity
 _atom_site_fract_x
 _atom_site_fract_y
 _atom_site_fract_z
 _atom_site_occupancy
  H  H0  1  0.19198503  0.17022032  0.81794755  1
  H  H1  1  0.26650111  0.22229668  0.89320679  1
  H  H2  1  0.19599825  0.30643287  0.83286433  1
  H  H3  1  0.38271651  0.31286243  0.79893548  1
  H  H4  1  0.38921089  0.16629917  0.79401070  1
  H  H5  1  0.28866808  0.06612252  0.67641026  1
  H  H6  1  0.24047597  0.08046420  0.53061763  1
  H  H7  1  0.20760049  0.45212289  0.44921398  1
  H  H8  1  0.17838114  0.44254453  0.29076020  1
  H  H9  1  0.17151521  0.15339597  0.19905450  1
  H  H10  1  0.14711930  0.29406935  0.17807925  1
  H  H11  1  0.34826083  0.31559332  0.17829207  1
  H  H12  1  0.36500958  0.18016312  0.19171692  1
  H  H13  1  0.30021822  0.22425613  0.10930772  1
  H  H14  1  0.31743235  0.41774792  0.68523325  1
  H  H15  1  0.15731145  0.81596672  0.82449368  1
  H  H16  1  0.22390295  0.74483144  0.89523752  1
  H  H17  1  0.29392172  0.81999238  0.83088003  1
  H  H18  1  0.31094862  0.62583345  0.79914485  1
  H  H19  1  0.16611306  0.61958906  0.79203515  1
  H  H20  1  0.06493179  0.71571265  0.67379987  1
  H  H21  1  0.08047625  0.75922268  0.52910630  1
  H  H22  1  0.44959214  0.79039322  0.45195542  1
  H  H23  1  0.43709373  0.82315819  0.29437360  1
  H  H24  1  0.14898414  0.84854145  0.20783431  1
  H  H25  1  0.28792753  0.85501189  0.18224116  1
  H  H26  1  0.29715732  0.66616143  0.15709359  1
  H  H27  1  0.17753499  0.64204884  0.20097830  1
  H  H28  1  0.17943347  0.71000713  0.11513284  1
  H  H29  1  0.41529987  0.69063496  0.68911245  1
  H  H30  1  0.82024064  0.34936142  0.19115059  1
  H  H31  1  0.76536017  0.28563105  0.11212876  1
  H  H32  1  0.68296120  0.34372272  0.18229337  1
  H  H33  1  0.68814823  0.14686994  0.19459763  1
  H  H34  1  0.83307887  0.14732892  0.19684457  1
  H  H35  1  0.93276714  0.22862784  0.32333967  1
  H  H36  1  0.91846085  0.26412678  0.47053689  1
  H  H37  1  0.54858043  0.29365486  0.54872856  1
  H  H38  1  0.55749707  0.33140831  0.70656070  1
  H  H39  1  0.84690345  0.34072018  0.79753620  1
  H  H40  1  0.70828993  0.36754043  0.81997592  1
  H  H41  1  0.68033518  0.18013049  0.83896406  1
  H  H42  1  0.80217308  0.14066247  0.80012158  1
  H  H43  1  0.79653368  0.21021369  0.88746931  1
  H  H44  1  0.58558694  0.18632465  0.31301523  1
  H  H45  1  0.66345246  0.83914752  0.18402169  1
  H  H46  1  0.73269753  0.78434537  0.10756585  1
  H  H47  1  0.67178757  0.70254220  0.17028849  1
  H  H48  1  0.86373856  0.69481178  0.19785646  1
  H  H49  1  0.86407883  0.84088688  0.20415959  1
  H  H50  1  0.77487705  0.93933139  0.32577741  1
  H  H51  1  0.73478116  0.92180135  0.47057706  1
  H  H52  1  0.70912858  0.54935688  0.54843867  1
  H  H53  1  0.67633812  0.56102163  0.70514257  1
  H  H54  1  0.65815356  0.85226883  0.79364304  1
  H  H55  1  0.64021646  0.71268605  0.81609241  1
  H  H56  1  0.83879431  0.68859178  0.82728386  1
  H  H57  1  0.85466188  0.82218149  0.80806958  1
  H  H58  1  0.78982317  0.78791975  0.89015173  1
  H  H59  1  0.81392536  0.58731714  0.31185622  1
  Pb  Pb60  1  -0.00043861  0.99996782  1.00136220  1
  Pb  Pb61  1  0.99314779  0.49353089  0.99312045  1
  Pb  Pb62  1  0.48923495  0.98066639  0.99595657  1
  Pb  Pb63  1  0.50941904  0.49061442  0.00360965  1
  C  C64  1  0.33873207  0.23919268  0.77993937  1
  C  C65  1  0.30575721  0.24157266  0.69289093  1
  C  C66  1  0.28372802  0.14600006  0.64795856  1
  C  C67  1  0.25775385  0.15394533  0.56651676  1
  C  C68  1  0.25495213  0.25790821  0.53123495  1
  C  C69  1  0.23221943  0.27609941  0.44582606  1
  C  C70  1  0.21149571  0.37777536  0.41235495  1
  C  C71  1  0.19773285  0.37247580  0.32830133  1
  C  C72  1  0.20823260  0.26734665  0.29683810  1
  C  C73  1  0.20184906  0.23623238  0.21010764  1
  C  C74  1  0.29929312  0.34136682  0.65258162  1
  C  C75  1  0.23619328  0.67044350  0.78046240  1
  C  C76  1  0.23943831  0.70061769  0.69370159  1
  C  C77  1  0.14480661  0.72011156  0.64707528  1
  C  C78  1  0.15348191  0.74361752  0.56610363  1
  C  C79  1  0.25746748  0.74644733  0.53291681  1
  C  C80  1  0.27575398  0.76820838  0.44814040  1
  C  C81  1  0.37547188  0.78805905  0.41509170  1
  C  C82  1  0.36877572  0.80384034  0.33146642  1
  C  C83  1  0.26432837  0.79576673  0.30003520  1
  C  C84  1  0.22904757  0.80736605  0.21469872  1
  C  C85  1  0.33935277  0.70636146  0.65520945  1
  C  C86  1  0.75947196  0.19214131  0.21622401  1
  C  C87  1  0.75896764  0.20835500  0.30560686  1
  C  C88  1  0.85369863  0.22779594  0.35168336  1
  C  C89  1  0.84584895  0.24657635  0.43406539  1
  C  C90  1  0.74279173  0.24495206  0.46890899  1
  C  C91  1  0.72343547  0.26846585  0.55395691  1
  C  C92  1  0.62220471  0.29082938  0.58617939  1
  C  C93  1  0.62706317  0.30960817  0.66986990  1
  C  C94  1  0.73153511  0.30125237  0.70197393  1
  C  C95  1  0.76408310  0.31088258  0.78817522  1
  C  C96  1  0.66074161  0.20512022  0.34636616  1
  C  C97  1  0.81805557  0.76811787  0.21853270  1
  C  C98  1  0.79517224  0.76380573  0.30630410  1
  C  C99  1  0.77417767  0.85858731  0.35280320  1
  C  C100  1  0.75282371  0.84890300  0.43391476  1
  C  C101  1  0.75387349  0.74384582  0.46762567  1
  C  C102  1  0.73210827  0.72467509  0.55209471  1
  C  C103  1  0.71187324  0.62399911  0.58498222  1
  C  C104  1  0.69495833  0.63041636  0.66829316  1
  C  C105  1  0.70253243  0.73559482  0.69962924  1
  C  C106  1  0.69281387  0.76929686  0.78549668  1
  C  C107  1  0.79507372  0.66308088  0.34546149  1
  S  S108  1  0.23382246  0.17397472  0.37221363  1
  S  S109  1  0.17346276  0.76998783  0.37472054  1
  S  S110  1  0.82449174  0.27198612  0.62795515  1
  S  S111  1  0.72939344  0.82724920  0.62533856  1
  I  I112  1  0.24343060  0.07104019  0.00516214  1
  I  I113  1  0.24786427  0.43820083  0.99541036  1
  I  I114  1  0.74646332  0.94278534  0.99496420  1
  I  I115  1  0.74690582  0.58585340  0.00189150  1
  I  I116  1  0.91348671  0.24864683  0.00174129  1
  I  I117  1  0.05227420  0.74640721  0.00292496  1
  I  I118  1  0.54113480  0.23107101  0.96387009  1
  I  I119  1  0.42309003  0.73600251  0.03147728  1
  I  I120  1  0.99682090  0.98767948  0.79844221  1
  I  I121  1  0.00164734  0.00881300  0.18899168  1
  I  I122  1  0.97431074  0.52010407  0.80179211  1
  I  I123  1  0.98678007  0.49134146  0.18776048  1
  I  I124  1  0.44245203  0.94404395  0.80707609  1
  I  I125  1  0.50433611  0.00671312  0.19064313  1
  I  I126  1  0.50259258  0.51506786  0.81905761  1
  I  I127  1  0.51076567  0.45689681  0.20129630  1
  N  N128  1  0.24165458  0.23447894  0.83374770  1
  N  N129  1  0.31084834  0.24040447  0.17046744  1
  N  N130  1  0.27492570  0.35035418  0.57466624  1
  N  N131  1  0.22704001  0.76889963  0.83610726  1
  N  N132  1  0.22097121  0.69840124  0.17022873  1
  N  N133  1  0.34912929  0.72840891  0.57774631  1
  N  N134  1  0.75618580  0.29966356  0.17325944  1
  N  N135  1  0.75967108  0.20233109  0.83012393  1
  N  N136  1  0.65183445  0.22224888  0.42508369  1
  N  N137  1  0.71458976  0.77376696  0.16757658  1
  N  N138  1  0.80121242  0.76604272  0.83017113  1
  N  N139  1  0.77555909  0.65229471  0.42318610  1
