# generated using pymatgen
data_H18PbC13S(I2N)2
_symmetry_space_group_name_H-M   'P 1'
_cell_length_a   12.34594659
_cell_length_b   12.28681800
_cell_length_c   17.91002591
_cell_angle_alpha   89.75813871
_cell_angle_beta   90.04489652
_cell_angle_gamma   89.78021570
_symmetry_Int_Tables_number   1
_chemical_formula_structural   H18PbC13S(I2N)2
_chemical_formula_sum   'H72 Pb4 C52 S4 I16 N8'
_cell_volume   2716.76972882
_cell_formula_units_Z   4
loop_
 _symmetry_equiv_pos_site_id
 _symmetry_equiv_pos_as_xyz
  1  'x, y, z'
loop_
 _atom_site_type_symbol
 _atom_site_label
 _atom_site_symmetry_multiplicity
 _atom_site_fract_x
 _atom_site_fract_y
 _atom_site_fract_z
 _atom_site_occupancy
  H  H0  1  0.18351687  0.26795348  0.89812814  1
  H  H1  1  0.26279799  0.36594789  0.86230299  1
  H  H2  1  0.31725224  0.24951417  0.88837236  1
  H  H3  1  0.16069853  0.28068634  0.76183601  1
  H  H4  1  0.21638094  0.15286115  0.78960770  1
  H  H5  1  0.40288644  0.21911784  0.76522660  1
  H  H6  1  0.35366151  0.35045988  0.74248929  1
  H  H7  1  0.39547629  0.06593662  0.66219469  1
  H  H8  1  0.35827242  0.05383231  0.51666433  1
  H  H9  1  0.30554564  0.40800468  0.44273749  1
  H  H10  1  0.25615013  0.43774269  0.31045949  1
  H  H11  1  0.11262524  0.23021438  0.19406900  1
  H  H12  1  0.14423926  0.37084830  0.20087270  1
  H  H13  1  0.24179166  0.27308830  0.10497636  1
  H  H14  1  0.31055360  0.19823937  0.16841154  1
  H  H15  1  0.32665312  0.33343645  0.16582351  1
  H  H16  1  0.15652960  0.10298055  0.29314505  1
  H  H17  1  0.20366828  0.07326062  0.42625089  1
  H  H18  1  0.26249778  0.81566468  0.89795868  1
  H  H19  1  0.35650448  0.73097758  0.86250287  1
  H  H20  1  0.23795999  0.68302647  0.88851774  1
  H  H21  1  0.27374742  0.84141796  0.76330471  1
  H  H22  1  0.14591942  0.78472069  0.78888455  1
  H  H23  1  0.21614419  0.59757944  0.76271417  1
  H  H24  1  0.34478348  0.65027061  0.74069181  1
  H  H25  1  0.06156165  0.60888017  0.65951578  1
  H  H26  1  0.05183967  0.64395222  0.51350082  1
  H  H27  1  0.40480348  0.69177417  0.44183332  1
  H  H28  1  0.43521097  0.74220851  0.30965228  1
  H  H29  1  0.23461662  0.89506046  0.19358769  1
  H  H30  1  0.37140426  0.85029150  0.19897381  1
  H  H31  1  0.26646499  0.76095369  0.10343878  1
  H  H32  1  0.18353764  0.70592922  0.16590127  1
  H  H33  1  0.31427898  0.66856145  0.16584959  1
  H  H34  1  0.10304097  0.84837003  0.29117921  1
  H  H35  1  0.07225811  0.79848964  0.42357136  1
  H  H36  1  0.73389915  0.31846646  0.10337212  1
  H  H37  1  0.63642221  0.23770538  0.13847278  1
  H  H38  1  0.75220685  0.18381779  0.11150395  1
  H  H39  1  0.72252601  0.33846580  0.23910930  1
  H  H40  1  0.84909665  0.28290038  0.21078482  1
  H  H41  1  0.78443593  0.09514144  0.23669578  1
  H  H42  1  0.65312775  0.14410383  0.25834300  1
  H  H43  1  0.94263436  0.12454024  0.33794751  1
  H  H44  1  0.95249678  0.15983583  0.48330528  1
  H  H45  1  0.59257683  0.19134928  0.55751514  1
  H  H46  1  0.56204598  0.23908236  0.68906149  1
  H  H47  1  0.76650229  0.38329750  0.80797348  1
  H  H48  1  0.62688759  0.35017941  0.80068101  1
  H  H49  1  0.72321621  0.24930475  0.89563388  1
  H  H50  1  0.80136743  0.18509536  0.83220105  1
  H  H51  1  0.66761563  0.16446773  0.83330399  1
  H  H52  1  0.89290146  0.34603330  0.70833246  1
  H  H53  1  0.92361877  0.30048424  0.57552403  1
  H  H54  1  0.68744409  0.73727316  0.10058072  1
  H  H55  1  0.77362489  0.64353527  0.13649662  1
  H  H56  1  0.81925950  0.76338691  0.11004841  1
  H  H57  1  0.66191292  0.72529947  0.23498863  1
  H  H58  1  0.71843075  0.85409442  0.20973068  1
  H  H59  1  0.90432740  0.78400148  0.23650949  1
  H  H60  1  0.85282489  0.65355055  0.25699228  1
  H  H61  1  0.89311518  0.93532607  0.33973595  1
  H  H62  1  0.85717027  0.94486203  0.48526027  1
  H  H63  1  0.80755235  0.58959549  0.55823681  1
  H  H64  1  0.75987350  0.56093646  0.69073340  1
  H  H65  1  0.61347514  0.76640362  0.80628592  1
  H  H66  1  0.65619041  0.62832061  0.80237139  1
  H  H67  1  0.74846774  0.73492720  0.89576214  1
  H  H68  1  0.80501230  0.81526519  0.83133258  1
  H  H69  1  0.83704144  0.68187151  0.83426478  1
  H  H70  1  0.65762492  0.89604095  0.70700896  1
  H  H71  1  0.70377256  0.92461222  0.57387497  1
  Pb  Pb72  1  0.99107703  0.01222191  0.99502079  1
  Pb  Pb73  1  0.98072823  0.50293335  0.99503902  1
  Pb  Pb74  1  0.48818376  0.00745168  1.00063045  1
  Pb  Pb75  1  0.48435697  0.51146165  0.01046743  1
  C  C76  1  0.23283327  0.24036914  0.78495842  1
  C  C77  1  0.33468569  0.26315743  0.73895579  1
  C  C78  1  0.32588791  0.22809631  0.65936604  1
  C  C79  1  0.35726178  0.12994489  0.62890745  1
  C  C80  1  0.33694473  0.12347169  0.55114793  1
  C  C81  1  0.29056482  0.21707221  0.52170537  1
  C  C82  1  0.25965484  0.23794327  0.44398228  1
  C  C83  1  0.27221101  0.34094188  0.41031205  1
  C  C84  1  0.24492146  0.35748841  0.33564445  1
  C  C85  1  0.20475176  0.27171700  0.29235755  1
  C  C86  1  0.17482526  0.28833128  0.21184500  1
  C  C87  1  0.19075848  0.16938889  0.32588316  1
  C  C88  1  0.21733141  0.15270736  0.40055680  1
  C  C89  1  0.23316434  0.76832430  0.78470165  1
  C  C90  1  0.25752507  0.66789057  0.73734198  1
  C  C91  1  0.22294448  0.67720903  0.65767147  1
  C  C92  1  0.12587370  0.64579032  0.62646964  1
  C  C93  1  0.12072918  0.66487613  0.54853410  1
  C  C94  1  0.21450745  0.70984563  0.51968369  1
  C  C95  1  0.23589045  0.74024237  0.44209178  1
  C  C96  1  0.33849828  0.72645678  0.40901666  1
  C  C97  1  0.35541659  0.75441007  0.33451501  1
  C  C98  1  0.27058048  0.79688605  0.29102362  1
  C  C99  1  0.28739887  0.82723445  0.21072066  1
  C  C100  1  0.16860061  0.81187552  0.32394712  1
  C  C101  1  0.15136574  0.78410425  0.39832802  1
  C  C102  1  0.76217035  0.26617091  0.21569684  1
  C  C103  1  0.73984788  0.16372341  0.26188161  1
  C  C104  1  0.77453189  0.17523906  0.34147690  1
  C  C105  1  0.87545856  0.15469630  0.37156347  1
  C  C106  1  0.88073980  0.17455866  0.44929127  1
  C  C107  1  0.78361175  0.21081251  0.47919537  1
  C  C108  1  0.76148030  0.24000127  0.55686223  1
  C  C109  1  0.65913486  0.22512908  0.59011658  1
  C  C110  1  0.64203964  0.25156125  0.66474375  1
  C  C111  1  0.72626215  0.29306479  0.70867218  1
  C  C112  1  0.70933908  0.32062531  0.78940288  1
  C  C113  1  0.82773628  0.31000135  0.67548466  1
  C  C114  1  0.84496606  0.28437702  0.60087351  1
  C  C115  1  0.73459636  0.76633689  0.21378183  1
  C  C116  1  0.83473654  0.74100742  0.26124020  1
  C  C117  1  0.82488099  0.77362514  0.34111716  1
  C  C118  1  0.85611033  0.87069418  0.37260753  1
  C  C119  1  0.83670765  0.87551204  0.45044399  1
  C  C120  1  0.79145319  0.78125620  0.47906050  1
  C  C121  1  0.76101732  0.75990970  0.55669024  1
  C  C122  1  0.77436202  0.65706465  0.59057218  1
  C  C123  1  0.74800236  0.64109478  0.66542769  1
  C  C124  1  0.70776969  0.72733574  0.70849926  1
  C  C125  1  0.67993190  0.71221877  0.78939341  1
  C  C126  1  0.69231408  0.82933555  0.67460254  1
  C  C127  1  0.71827652  0.84544623  0.59989728  1
  S  S128  1  0.27200808  0.31286308  0.59146183  1
  S  S129  1  0.30872420  0.72888875  0.59018210  1
  S  S130  1  0.68603541  0.21958387  0.40967619  1
  S  S131  1  0.77256401  0.68710493  0.40834015  1
  I  I132  1  0.24418980  0.93280965  0.00732205  1
  I  I133  1  0.23503409  0.55279034  0.00643420  1
  I  I134  1  0.74288326  0.03011353  0.02156080  1
  I  I135  1  0.73676691  0.43623303  0.98581572  1
  I  I136  1  0.07148272  0.25629110  0.01050285  1
  I  I137  1  0.95629194  0.75686394  0.00181398  1
  I  I138  1  0.46922759  0.25570755  0.98082433  1
  I  I139  1  0.56453191  0.75236379  0.99060253  1
  I  I140  1  0.94468758  0.01912487  0.81801436  1
  I  I141  1  0.00086517  0.00508372  0.17566078  1
  I  I142  1  0.97972988  0.52835123  0.81440721  1
  I  I143  1  0.96170290  0.50488256  0.16991552  1
  I  I144  1  0.51051556  0.00809855  0.82090422  1
  I  I145  1  0.47088073  0.06640161  0.17629687  1
  I  I146  1  0.46195711  0.51077843  0.83544466  1
  I  I147  1  0.45928953  0.51112185  0.19183516  1
  N  N148  1  0.24895391  0.28299826  0.86235402  1
  N  N149  1  0.26966776  0.27203236  0.15966692  1
  N  N150  1  0.27466841  0.74910665  0.86242468  1
  N  N151  1  0.26123472  0.73431949  0.15848396  1
  N  N152  1  0.71905208  0.25185751  0.13813841  1
  N  N153  1  0.72688587  0.22368682  0.84063292  1
  N  N154  1  0.75374567  0.72556718  0.13608695  1
  N  N155  1  0.77381061  0.73819547  0.84065459  1
