# generated using pymatgen
data_H14PbC11S(I2N)2
_symmetry_space_group_name_H-M   'P 1'
_cell_length_a   12.51127766
_cell_length_b   12.49574547
_cell_length_c   15.43108928
_cell_angle_alpha   88.86573826
_cell_angle_beta   89.20485699
_cell_angle_gamma   89.27455683
_symmetry_Int_Tables_number   1
_chemical_formula_structural   H14PbC11S(I2N)2
_chemical_formula_sum   'H56 Pb4 C44 S4 I16 N8'
_cell_volume   2411.57154086
_cell_formula_units_Z   4
loop_
 _symmetry_equiv_pos_site_id
 _symmetry_equiv_pos_as_xyz
  1  'x, y, z'
loop_
 _atom_site_type_symbol
 _atom_site_label
 _atom_site_symmetry_multiplicity
 _atom_site_fract_x
 _atom_site_fract_y
 _atom_site_fract_z
 _atom_site_occupancy
  H  H0  1  0.16086869  0.30794829  0.81007438  1
  H  H1  1  0.13325963  0.17664520  0.79696394  1
  H  H2  1  0.19731370  0.21434425  0.88479440  1
  H  H3  1  0.35652529  0.25432268  0.81049082  1
  H  H4  1  0.31448931  0.12422135  0.78236059  1
  H  H5  1  0.36355155  0.40545271  0.69359203  1
  H  H6  1  0.34848740  0.42843236  0.52348615  1
  H  H7  1  0.21615095  0.42040717  0.40823780  1
  H  H8  1  0.18461586  0.40309289  0.25113982  1
  H  H9  1  0.20585303  0.29501078  0.12354605  1
  H  H10  1  0.24588448  0.16702750  0.12811125  1
  H  H11  1  0.12127510  0.19575525  0.15445329  1
  H  H12  1  0.27469871  0.06923387  0.26751455  1
  H  H13  1  0.30960196  0.08659429  0.42419636  1
  H  H14  1  0.31200501  0.83300764  0.80980610  1
  H  H15  1  0.18414205  0.87228514  0.79150436  1
  H  H16  1  0.21230365  0.80395498  0.88174926  1
  H  H17  1  0.25166284  0.64271328  0.81075355  1
  H  H18  1  0.12282496  0.69176224  0.78200835  1
  H  H19  1  0.40581999  0.64092418  0.69531784  1
  H  H20  1  0.42733803  0.65487452  0.52494510  1
  H  H21  1  0.41585293  0.78585245  0.40901058  1
  H  H22  1  0.40082489  0.81693078  0.25056538  1
  H  H23  1  0.29868255  0.79517089  0.12308292  1
  H  H24  1  0.17176790  0.75450446  0.12387046  1
  H  H25  1  0.19525051  0.87933466  0.14943110  1
  H  H26  1  0.06972305  0.72557238  0.26342885  1
  H  H27  1  0.08464187  0.69180421  0.42156399  1
  H  H28  1  0.69101342  0.34461843  0.19260097  1
  H  H29  1  0.82200106  0.37237389  0.19916803  1
  H  H30  1  0.77882455  0.30535044  0.11500804  1
  H  H31  1  0.74673361  0.14710158  0.19182383  1
  H  H32  1  0.87574418  0.19198440  0.21929284  1
  H  H33  1  0.59479853  0.14246532  0.30708398  1
  H  H34  1  0.57130494  0.15650605  0.47670119  1
  H  H35  1  0.57891556  0.29118227  0.59037456  1
  H  H36  1  0.59554799  0.32585592  0.74737411  1
  H  H37  1  0.70338187  0.29471448  0.87739108  1
  H  H38  1  0.83371752  0.26401975  0.87210961  1
  H  H39  1  0.79417402  0.38700213  0.84750553  1
  H  H40  1  0.92708826  0.22814635  0.73566087  1
  H  H41  1  0.91081366  0.19136023  0.57941267  1
  H  H42  1  0.66069039  0.68879887  0.19545928  1
  H  H43  1  0.62417821  0.81995815  0.20519180  1
  H  H44  1  0.69109777  0.78213453  0.11799417  1
  H  H45  1  0.85206184  0.75039659  0.18903462  1
  H  H46  1  0.80255493  0.87912780  0.21653847  1
  H  H47  1  0.86105694  0.59822643  0.30526947  1
  H  H48  1  0.84885126  0.57521824  0.47539983  1
  H  H49  1  0.71320204  0.58262003  0.59007587  1
  H  H50  1  0.67861407  0.59602828  0.74829176  1
  H  H51  1  0.69661298  0.69792956  0.87616515  1
  H  H52  1  0.73665390  0.82507141  0.87613615  1
  H  H53  1  0.61259270  0.80077183  0.84579488  1
  H  H54  1  0.77094782  0.92740452  0.73767277  1
  H  H55  1  0.80776796  0.91395717  0.57989721  1
  Pb  Pb56  1  0.99855246  -0.00123445  0.99016066  1
  Pb  Pb57  1  0.99976578  0.50183725  0.98855842  1
  Pb  Pb58  1  0.50517039  0.00819002  0.99110206  1
  Pb  Pb59  1  0.48887222  0.49933708  0.02469445  1
  C  C60  1  0.29692977  0.21020119  0.77426051  1
  C  C61  1  0.29807545  0.24677717  0.68175761  1
  C  C62  1  0.33216043  0.34519329  0.65090491  1
  C  C63  1  0.32381861  0.35732796  0.56003337  1
  C  C64  1  0.28371736  0.26780622  0.52075905  1
  C  C65  1  0.26454415  0.25460725  0.42809626  1
  C  C66  1  0.23096146  0.34364866  0.37764070  1
  C  C67  1  0.21307555  0.33447511  0.28936720  1
  C  C68  1  0.22704489  0.23513510  0.25145804  1
  C  C69  1  0.26144898  0.14566793  0.29893047  1
  C  C70  1  0.28051014  0.15593140  0.38706374  1
  C  C71  1  0.20885144  0.70531304  0.77360518  1
  C  C72  1  0.24482966  0.70392727  0.68121692  1
  C  C73  1  0.34436588  0.67138305  0.65163604  1
  C  C74  1  0.35567241  0.67912934  0.56068659  1
  C  C75  1  0.26439743  0.71757074  0.52014121  1
  C  C76  1  0.25141204  0.73651388  0.42697701  1
  C  C77  1  0.34038264  0.77055197  0.37730907  1
  C  C78  1  0.33254082  0.78791538  0.28843869  1
  C  C79  1  0.23482704  0.77285909  0.24899457  1
  C  C80  1  0.14521529  0.73871822  0.29573578  1
  C  C81  1  0.15406453  0.72023568  0.38471174  1
  C  C82  1  0.78976296  0.20825377  0.22722701  1
  C  C83  1  0.75345362  0.20722912  0.31965592  1
  C  C84  1  0.65483805  0.17386232  0.34989249  1
  C  C85  1  0.64231103  0.18166834  0.44055429  1
  C  C86  1  0.73174316  0.22098013  0.48039534  1
  C  C87  1  0.74409072  0.24018405  0.57302173  1
  C  C88  1  0.65517418  0.27611723  0.62201213  1
  C  C89  1  0.66382594  0.29537625  0.71011398  1
  C  C90  1  0.76237850  0.27932249  0.74932607  1
  C  C91  1  0.85129799  0.24225518  0.70333560  1
  C  C92  1  0.84178967  0.22242068  0.61532685  1
  C  C93  1  0.78995210  0.79296678  0.22629532  1
  C  C94  1  0.79367267  0.75764889  0.31900898  1
  C  C95  1  0.82939364  0.65890964  0.34873315  1
  C  C96  1  0.82245396  0.64655058  0.43967012  1
  C  C97  1  0.78138683  0.73626515  0.48023685  1
  C  C98  1  0.76214777  0.74763629  0.57343160  1
  C  C99  1  0.72778722  0.65779506  0.62229301  1
  C  C100  1  0.70883441  0.66450035  0.71094248  1
  C  C101  1  0.72332249  0.76192724  0.75085448  1
  C  C102  1  0.75855496  0.85210652  0.70498678  1
  C  C103  1  0.77832755  0.84436546  0.61623939  1
  S  S104  1  0.25572799  0.16868297  0.59771178  1
  S  S105  1  0.16463541  0.74424129  0.59589760  1
  S  S106  1  0.83143485  0.24845379  0.40422444  1
  S  S107  1  0.75133303  0.83612469  0.40444767  1
  I  I108  1  0.25400967  0.04348613  0.99310444  1
  I  I109  1  0.24603778  0.42419403  0.00559309  1
  I  I110  1  0.75557120  0.94330670  0.00513436  1
  I  I111  1  0.74782160  0.54824707  0.98127095  1
  I  I112  1  0.95295598  0.24576794  0.00597845  1
  I  I113  1  0.05320173  0.74772324  0.98971284  1
  I  I114  1  0.56999234  0.25146689  0.99451833  1
  I  I115  1  0.44930626  0.75176655  0.02075973  1
  I  I116  1  0.02891076  0.00602829  0.77671722  1
  I  I117  1  0.02402426  0.99887851  0.19542388  1
  I  I118  1  0.01620427  0.46509042  0.78544289  1
  I  I119  1  0.98449630  0.48619485  0.19528859  1
  I  I120  1  0.48245770  0.94852586  0.78765287  1
  I  I121  1  0.51245864  0.99892929  0.19583719  1
  I  I122  1  0.48408120  0.50955837  0.82385612  1
  I  I123  1  0.56211986  0.50828682  0.22694769  1
  N  N124  1  0.19029615  0.23003056  0.81895500  1
  N  N125  1  0.19898331  0.22348772  0.16016646  1
  N  N126  1  0.23218613  0.81017888  0.81638692  1
  N  N127  1  0.22554063  0.80132732  0.15680437  1
  N  N128  1  0.76767555  0.31385124  0.18105465  1
  N  N129  1  0.77350008  0.30726073  0.84062504  1
  N  N130  1  0.68473316  0.76800386  0.18421780  1
  N  N131  1  0.69134857  0.77093197  0.84204774  1
