# generated using pymatgen
data_H12PbC10S(I2N)2
_symmetry_space_group_name_H-M   'P 1'
_cell_length_a   12.68421860
_cell_length_b   12.50938021
_cell_length_c   14.07803604
_cell_angle_alpha   91.57704947
_cell_angle_beta   90.41548714
_cell_angle_gamma   88.91815420
_symmetry_Int_Tables_number   1
_chemical_formula_structural   H12PbC10S(I2N)2
_chemical_formula_sum   'H48 Pb4 C40 S4 I16 N8'
_cell_volume   2232.49130170
_cell_formula_units_Z   4
loop_
 _symmetry_equiv_pos_site_id
 _symmetry_equiv_pos_as_xyz
  1  'x, y, z'
loop_
 _atom_site_type_symbol
 _atom_site_label
 _atom_site_symmetry_multiplicity
 _atom_site_fract_x
 _atom_site_fract_y
 _atom_site_fract_z
 _atom_site_occupancy
  H  H0  1  0.30633658  0.27472560  0.88493795  1
  H  H1  1  0.36772442  0.32191023  0.79062012  1
  H  H2  1  0.34553766  0.18817275  0.79806710  1
  H  H3  1  0.18767323  0.36818435  0.77580633  1
  H  H4  1  0.15107568  0.23532430  0.80147626  1
  H  H5  1  0.15933161  0.08661825  0.66908027  1
  H  H6  1  0.17847237  0.07069000  0.48253267  1
  H  H7  1  0.30173253  0.08878767  0.35617006  1
  H  H8  1  0.33175635  0.11865582  0.18399436  1
  H  H9  1  0.30072563  0.28895039  0.12421529  1
  H  H10  1  0.24273748  0.43891626  0.21071854  1
  H  H11  1  0.20522783  0.42330100  0.38461666  1
  H  H12  1  0.27876687  0.68682577  0.87776232  1
  H  H13  1  0.31013220  0.61894569  0.77889459  1
  H  H14  1  0.18280307  0.65648615  0.79742692  1
  H  H15  1  0.36799995  0.79942309  0.76980591  1
  H  H16  1  0.24008540  0.84842390  0.80035375  1
  H  H17  1  0.08570819  0.83403571  0.67225944  1
  H  H18  1  0.06957394  0.81642376  0.48517740  1
  H  H19  1  0.09256366  0.70179725  0.34964217  1
  H  H20  1  0.12441138  0.67808329  0.17587062  1
  H  H21  1  0.29489642  0.70843118  0.11697457  1
  H  H22  1  0.43858817  0.76117793  0.20583818  1
  H  H23  1  0.42061505  0.79189139  0.38184167  1
  H  H24  1  0.72882626  0.18563749  0.11569165  1
  H  H25  1  0.67763979  0.12179511  0.20602692  1
  H  H26  1  0.80819033  0.14505097  0.20375303  1
  H  H27  1  0.62975176  0.30438829  0.22927553  1
  H  H28  1  0.75898627  0.34426490  0.20084011  1
  H  H29  1  0.90939992  0.33538513  0.32779935  1
  H  H30  1  0.92888772  0.31739146  0.51344632  1
  H  H31  1  0.91330230  0.19836712  0.64214794  1
  H  H32  1  0.88434268  0.16534212  0.81384763  1
  H  H33  1  0.71601599  0.19196843  0.87714840  1
  H  H34  1  0.56858255  0.25588423  0.79585247  1
  H  H35  1  0.58278424  0.29463450  0.62277202  1
  H  H36  1  0.81254748  0.72725538  0.12023479  1
  H  H37  1  0.87757916  0.68253713  0.21368627  1
  H  H38  1  0.84471297  0.81537977  0.20876424  1
  H  H39  1  0.70223404  0.62738442  0.22740473  1
  H  H40  1  0.65383536  0.75768349  0.20160655  1
  H  H41  1  0.66103167  0.91096891  0.33240170  1
  H  H42  1  0.67936234  0.92889212  0.51892573  1
  H  H43  1  0.80298456  0.90985983  0.64725570  1
  H  H44  1  0.83637360  0.88001415  0.81960696  1
  H  H45  1  0.80788011  0.70988991  0.87980319  1
  H  H46  1  0.74903207  0.56228362  0.79417200  1
  H  H47  1  0.71035492  0.57776700  0.61957315  1
  Pb  Pb48  1  0.01910302  1.00442074  0.02353759  1
  Pb  Pb49  1  -0.00001758  0.49043173  0.99208674  1
  Pb  Pb50  1  0.50532427  0.99264108  0.97865203  1
  Pb  Pb51  1  0.50755482  0.49895505  1.00093330  1
  C  C52  1  0.20869880  0.28322346  0.76427176  1
  C  C53  1  0.21014184  0.25064009  0.66147722  1
  C  C54  1  0.18564212  0.15053876  0.62436700  1
  C  C55  1  0.19677270  0.14209409  0.52505149  1
  C  C56  1  0.22905884  0.23662599  0.48572432  1
  C  C57  1  0.24931021  0.25370365  0.38597029  1
  C  C58  1  0.28497257  0.16718056  0.32735836  1
  C  C59  1  0.30317911  0.18179600  0.23236745  1
  C  C60  1  0.25413016  0.36484239  0.24832194  1
  C  C61  1  0.23467146  0.35398645  0.34381744  1
  C  C62  1  0.28345771  0.78529222  0.76022491  1
  C  C63  1  0.24990008  0.78531031  0.65848053  1
  C  C64  1  0.14948381  0.80844550  0.62498358  1
  C  C65  1  0.14110614  0.79854623  0.52543388  1
  C  C66  1  0.23584241  0.76846949  0.48247024  1
  C  C67  1  0.25384004  0.75122487  0.38155306  1
  C  C68  1  0.16990373  0.71880228  0.32142352  1
  C  C69  1  0.18583298  0.70393339  0.22530038  1
  C  C70  1  0.36529431  0.74940892  0.24317815  1
  C  C71  1  0.35302934  0.76580433  0.33971847  1
  C  C72  1  0.71381449  0.28467123  0.23853681  1
  C  C73  1  0.74774425  0.28458625  0.34037213  1
  C  C74  1  0.84733275  0.30879872  0.37417889  1
  C  C75  1  0.85756370  0.29891841  0.47319682  1
  C  C76  1  0.76502212  0.26796338  0.51590757  1
  C  C77  1  0.74982859  0.24928262  0.61625893  1
  C  C78  1  0.83581690  0.21417905  0.67275154  1
  C  C79  1  0.82182968  0.19522753  0.76768493  1
  C  C80  1  0.64133217  0.24428753  0.75649418  1
  C  C81  1  0.65152546  0.26458032  0.66113034  1
  C  C82  1  0.71570983  0.71307459  0.23955395  1
  C  C83  1  0.71464331  0.74608194  0.34224737  1
  C  C84  1  0.68851646  0.84710990  0.37796217  1
  C  C85  1  0.69918889  0.85670378  0.47730330  1
  C  C86  1  0.73296894  0.76211091  0.51799068  1
  C  C87  1  0.75291706  0.74593354  0.61815876  1
  C  C88  1  0.78784751  0.83201237  0.67646405  1
  C  C89  1  0.80735327  0.81741317  0.77162759  1
  C  C90  1  0.75926025  0.63579252  0.75615861  1
  C  C91  1  0.73902064  0.64642319  0.66057757  1
  S  S92  1  0.24526931  0.33557854  0.57300851  1
  S  S93  1  0.33472370  0.75279909  0.56678810  1
  S  S94  1  0.66559938  0.25141188  0.43169807  1
  S  S95  1  0.75116781  0.66164065  0.43199546  1
  I  I96  1  0.25904178  0.06565012  0.99736725  1
  I  I97  1  0.25055772  0.46735303  0.00073499  1
  I  I98  1  0.75507042  -0.01188543  0.98333372  1
  I  I99  1  0.74854837  0.55219686  0.00430262  1
  I  I100  1  0.93847774  0.25021422  0.01622444  1
  I  I101  1  0.01611116  0.74927184  0.99970642  1
  I  I102  1  0.52964132  0.24802451  0.00757689  1
  I  I103  1  0.44181874  0.74695332  0.98717803  1
  I  I104  1  0.02997658  0.99903700  0.80130792  1
  I  I105  1  0.94823098  0.98866574  0.25061741  1
  I  I106  1  0.02144660  0.52354231  0.76515117  1
  I  I107  1  0.98005953  0.51022340  0.22494727  1
  I  I108  1  0.47498628  0.02118299  0.75435366  1
  I  I109  1  0.52364522  0.99833074  0.21033858  1
  I  I110  1  0.46504969  0.48932667  0.75467533  1
  I  I111  1  0.49942965  0.50351686  0.22154377  1
  N  N112  1  0.31393624  0.26465247  0.81211145  1
  N  N113  1  0.28686437  0.27914593  0.19529127  1
  N  N114  1  0.26070928  0.68055694  0.80584363  1
  N  N115  1  0.28209253  0.72020786  0.18872675  1
  N  N116  1  0.73411137  0.17816743  0.18857300  1
  N  N117  1  0.72571247  0.21052401  0.80705088  1
  N  N118  1  0.81880814  0.73773854  0.19324920  1
  N  N119  1  0.79176329  0.72086419  0.80892483  1
