# generated using pymatgen
data_H15PbC11SI4N3
_symmetry_space_group_name_H-M   'P 1'
_cell_length_a   12.15441783
_cell_length_b   12.14147690
_cell_length_c   16.69454922
_cell_angle_alpha   90.06098824
_cell_angle_beta   90.16572830
_cell_angle_gamma   87.54963268
_symmetry_Int_Tables_number   1
_chemical_formula_structural   H15PbC11SI4N3
_chemical_formula_sum   'H60 Pb4 C44 S4 I16 N12'
_cell_volume   2461.39367804
_cell_formula_units_Z   4
loop_
 _symmetry_equiv_pos_site_id
 _symmetry_equiv_pos_as_xyz
  1  'x, y, z'
loop_
 _atom_site_type_symbol
 _atom_site_label
 _atom_site_symmetry_multiplicity
 _atom_site_fract_x
 _atom_site_fract_y
 _atom_site_fract_z
 _atom_site_occupancy
  H  H0  1  0.13781483  0.18710287  0.82229087  1
  H  H1  1  0.13928458  0.32624747  0.81509848  1
  H  H2  1  0.19477369  0.26272766  0.89468097  1
  H  H3  1  0.33450315  0.16707852  0.81350707  1
  H  H4  1  0.34395173  0.31325028  0.81529969  1
  H  H5  1  0.24150879  0.07779812  0.69325716  1
  H  H6  1  0.21740255  0.08374451  0.54634750  1
  H  H7  1  0.17800119  0.42610632  0.42436252  1
  H  H8  1  0.32950384  0.15478647  0.20148315  1
  H  H9  1  0.19255481  0.11200710  0.21361109  1
  H  H10  1  0.19220966  0.23360426  0.10746472  1
  H  H11  1  0.13074070  0.30935397  0.18214314  1
  H  H12  1  0.25866375  0.33065856  0.15550806  1
  H  H13  1  0.30658307  0.42424830  0.54544176  1
  H  H14  1  0.32735847  0.41853503  0.69304436  1
  H  H15  1  0.19742912  0.87155263  0.82164301  1
  H  H16  1  0.33574432  0.84942246  0.82014327  1
  H  H17  1  0.26118704  0.80236541  0.89632831  1
  H  H18  1  0.16616966  0.67664488  0.81370753  1
  H  H19  1  0.31128498  0.64842260  0.81426262  1
  H  H20  1  0.07399225  0.76157907  0.69283160  1
  H  H21  1  0.07862804  0.78499261  0.54576390  1
  H  H22  1  0.41929020  0.82400191  0.42748105  1
  H  H23  1  0.16926702  0.66547986  0.20122742  1
  H  H24  1  0.12083891  0.80586074  0.20738199  1
  H  H25  1  0.25166681  0.79236399  0.10648289  1
  H  H26  1  0.31755287  0.85506872  0.18301132  1
  H  H27  1  0.34678014  0.72425905  0.16242526  1
  H  H28  1  0.42639158  0.69566318  0.54649279  1
  H  H29  1  0.42186152  0.67612349  0.69390479  1
  H  H30  1  0.81337382  0.36376122  0.17487088  1
  H  H31  1  0.67476497  0.36380662  0.18504473  1
  H  H32  1  0.73433044  0.30611296  0.10474481  1
  H  H33  1  0.83320063  0.16764286  0.18612371  1
  H  H34  1  0.68748729  0.15760596  0.18475490  1
  H  H35  1  0.92282341  0.26162477  0.30677869  1
  H  H36  1  0.91686303  0.28453926  0.45374159  1
  H  H37  1  0.57245360  0.31771449  0.57502352  1
  H  H38  1  0.84574987  0.17277955  0.79907605  1
  H  H39  1  0.88458461  0.31125998  0.78716239  1
  H  H40  1  0.76169188  0.30974299  0.89223612  1
  H  H41  1  0.68497615  0.36691769  0.81645262  1
  H  H42  1  0.66815817  0.23854312  0.84428365  1
  H  H43  1  0.57759532  0.19271305  0.45417851  1
  H  H44  1  0.58324503  0.17318698  0.30651643  1
  H  H45  1  0.62939753  0.80368059  0.17792009  1
  H  H46  1  0.65032626  0.66523034  0.18122743  1
  H  H47  1  0.69760823  0.73780698  0.10403025  1
  H  H48  1  0.82344863  0.83441761  0.18621127  1
  H  H49  1  0.85184305  0.68910659  0.18650775  1
  H  H50  1  0.73926159  0.92737679  0.30763259  1
  H  H51  1  0.71563318  0.92212527  0.45451513  1
  H  H52  1  0.67497576  0.58033129  0.57234008  1
  H  H53  1  0.83472962  0.82862420  0.79923008  1
  H  H54  1  0.69500448  0.87873936  0.79219376  1
  H  H55  1  0.70843773  0.74898741  0.89431299  1
  H  H56  1  0.64182318  0.68473774  0.81908268  1
  H  H57  1  0.77265625  0.65167268  0.83796245  1
  H  H58  1  0.80437850  0.57381128  0.45385410  1
  H  H59  1  0.82470096  0.57916630  0.30656215  1
  Pb  Pb60  1  0.99320883  0.99745835  0.00175304  1
  Pb  Pb61  1  1.00138109  0.51179396  0.99686534  1
  Pb  Pb62  1  0.50256389  0.00219354  0.99794964  1
  Pb  Pb63  1  0.49141963  0.49550466  0.00336255  1
  C  C64  1  0.29544184  0.24538345  0.79294041  1
  C  C65  1  0.28411851  0.24841067  0.70330824  1
  C  C66  1  0.25507420  0.15411112  0.66098753  1
  C  C67  1  0.24238875  0.15721014  0.57814166  1
  C  C68  1  0.25972063  0.25466065  0.53523296  1
  C  C69  1  0.24670130  0.25958005  0.44811193  1
  C  C70  1  0.20811150  0.34652987  0.40119661  1
  C  C71  1  0.24271876  0.22723406  0.30357453  1
  C  C72  1  0.24610319  0.18251775  0.22023414  1
  C  C73  1  0.29023036  0.34876306  0.57786487  1
  C  C74  1  0.30175191  0.34555662  0.66088055  1
  C  C75  1  0.24541951  0.70609901  0.79312559  1
  C  C76  1  0.24785772  0.71864204  0.70356666  1
  C  C77  1  0.15150719  0.74785861  0.66081927  1
  C  C78  1  0.15399119  0.76020661  0.57791947  1
  C  C79  1  0.25305610  0.74262529  0.53545871  1
  C  C80  1  0.25842577  0.75491216  0.44837337  1
  C  C81  1  0.34335693  0.79329132  0.40293999  1
  C  C82  1  0.23130701  0.75543685  0.30325096  1
  C  C83  1  0.19238158  0.74881302  0.21848458  1
  C  C84  1  0.34943684  0.71240713  0.57857866  1
  C  C85  1  0.34674809  0.70124898  0.66153131  1
  C  C86  1  0.75511780  0.20676531  0.20672952  1
  C  C87  1  0.75262061  0.21799701  0.29637743  1
  C  C88  1  0.84665957  0.24742972  0.33889959  1
  C  C89  1  0.84348050  0.25959488  0.42182367  1
  C  C90  1  0.74632245  0.24136640  0.46467002  1
  C  C91  1  0.74082903  0.25391558  0.55180760  1
  C  C92  1  0.65265940  0.28985898  0.59840002  1
  C  C93  1  0.77199830  0.25789702  0.69645739  1
  C  C94  1  0.81592527  0.25558197  0.78013348  1
  C  C95  1  0.65268734  0.21016979  0.42183597  1
  C  C96  1  0.65590690  0.19924967  0.33880731  1
  C  C97  1  0.79423402  0.75518453  0.20727470  1
  C  C98  1  0.78176758  0.75313643  0.29685077  1
  C  C99  1  0.75271158  0.84953164  0.33954421  1
  C  C100  1  0.74013937  0.84665533  0.42242469  1
  C  C101  1  0.75722771  0.74721500  0.46485197  1
  C  C102  1  0.74470611  0.74122000  0.55190910  1
  C  C103  1  0.70578465  0.65613812  0.59711116  1
  C  C104  1  0.74439523  0.76720567  0.69718456  1
  C  C105  1  0.75121422  0.80641665  0.78182292  1
  C  C106  1  0.78749017  0.65091612  0.42177526  1
  C  C107  1  0.79898971  0.65405176  0.33891951  1
  S  S108  1  0.28237102  0.14859805  0.38612826  1
  S  S109  1  0.15319098  0.71736686  0.38445259  1
  S  S110  1  0.85200838  0.22072011  0.61428715  1
  S  S111  1  0.78322108  0.84558485  0.61617938  1
  I  I112  1  0.24728461  0.06282317  0.00881393  1
  I  I113  1  0.24920256  0.42199874  0.99482380  1
  I  I114  1  0.75437529  0.90242518  0.99657216  1
  I  I115  1  0.74509603  0.54199042  1.00323184  1
  I  I116  1  0.94352914  0.25549169  0.98907391  1
  I  I117  1  0.09685497  0.75129477  0.00309879  1
  I  I118  1  0.57850919  0.24322646  0.00587633  1
  I  I119  1  0.45157745  0.74966987  0.99648470  1
  I  I120  1  0.02967385  0.00327521  0.80109038  1
  I  I121  1  0.99937642  0.00149539  0.19063900  1
  I  I122  1  0.99332435  0.51013943  0.80456589  1
  I  I123  1  0.98884262  0.47404199  0.19088044  1
  I  I124  1  0.49137221  0.98487033  0.80425598  1
  I  I125  1  0.50620284  0.98033543  0.19210769  1
  I  I126  1  0.51292487  0.50249657  0.81373275  1
  I  I127  1  0.50531125  0.51024362  0.20066968  1
  N  N128  1  0.18441322  0.25582530  0.83313494  1
  N  N129  1  0.20597425  0.32770710  0.32036759  1
  N  N130  1  0.20408628  0.26890104  0.16338288  1
  N  N131  1  0.26150567  0.81413866  0.83485371  1
  N  N132  1  0.32740239  0.79365997  0.32184013  1
  N  N133  1  0.28237773  0.78263181  0.16443689  1
  N  N134  1  0.74393008  0.31726671  0.16597495  1
  N  N135  1  0.67085348  0.29195971  0.67928754  1
  N  N136  1  0.72786075  0.29530339  0.83624664  1
  N  N137  1  0.68612123  0.73869274  0.16552847  1
  N  N138  1  0.70545579  0.67148320  0.67830345  1
  N  N139  1  0.71597392  0.71762348  0.83641505  1
