# generated using pymatgen
data_H16PbC12I4N2O
_symmetry_space_group_name_H-M   'P 1'
_cell_length_a   12.44665056
_cell_length_b   12.78660401
_cell_length_c   16.16360609
_cell_angle_alpha   90.09993505
_cell_angle_beta   89.22442848
_cell_angle_gamma   88.91767118
_symmetry_Int_Tables_number   1
_chemical_formula_structural   H16PbC12I4N2O
_chemical_formula_sum   'H64 Pb4 C48 I16 N8 O4'
_cell_volume   2571.74450745
_cell_formula_units_Z   4
loop_
 _symmetry_equiv_pos_site_id
 _symmetry_equiv_pos_as_xyz
  1  'x, y, z'
loop_
 _atom_site_type_symbol
 _atom_site_label
 _atom_site_symmetry_multiplicity
 _atom_site_fract_x
 _atom_site_fract_y
 _atom_site_fract_z
 _atom_site_occupancy
  H  H0  1  0.15005945  0.34367448  0.81172280  1
  H  H1  1  0.22001048  0.29319421  0.88896295  1
  H  H2  1  0.17104746  0.21250396  0.81915891  1
  H  H3  1  0.36578312  0.23722987  0.80057521  1
  H  H4  1  0.33758354  0.37320774  0.78711615  1
  H  H5  1  0.27139919  0.43888956  0.65235833  1
  H  H6  1  0.23921389  0.40276942  0.50406865  1
  H  H7  1  0.18767756  0.04426312  0.42064638  1
  H  H8  1  0.15985441  0.09254565  0.25827772  1
  H  H9  1  0.12913464  0.34937837  0.21277331  1
  H  H10  1  0.25755520  0.39224451  0.24447569  1
  H  H11  1  0.21107364  0.22018261  0.12556092  1
  H  H12  1  0.26508491  0.33638158  0.10663646  1
  H  H13  1  0.33515058  0.24490428  0.15920783  1
  H  H14  1  0.27508863  0.07129539  0.55057951  1
  H  H15  1  0.30488450  0.10785126  0.69806907  1
  H  H16  1  0.33562679  0.85693289  0.80969310  1
  H  H17  1  0.29429017  0.78672973  0.88964943  1
  H  H18  1  0.20430320  0.83687024  0.82208974  1
  H  H19  1  0.23726256  0.64434886  0.80569629  1
  H  H20  1  0.37521323  0.67162877  0.78993339  1
  H  H21  1  0.44074440  0.73550275  0.65418581  1
  H  H22  1  0.40497255  0.76174275  0.50520534  1
  H  H23  1  0.03649360  0.80917649  0.42150432  1
  H  H24  1  0.08847938  0.83782362  0.25934219  1
  H  H25  1  0.35102905  0.86900214  0.21390203  1
  H  H26  1  0.40320712  0.74695913  0.24824539  1
  H  H27  1  0.22982140  0.78621706  0.12645008  1
  H  H28  1  0.35197554  0.73824149  0.10808033  1
  H  H29  1  0.26376838  0.66455031  0.15941555  1
  H  H30  1  0.06624144  0.71877660  0.55212576  1
  H  H31  1  0.10259791  0.69307125  0.70054549  1
  H  H32  1  0.66339336  0.34951873  0.19495024  1
  H  H33  1  0.69392896  0.27713985  0.11222736  1
  H  H34  1  0.79279044  0.32097617  0.17416959  1
  H  H35  1  0.76211127  0.13391758  0.19510822  1
  H  H36  1  0.62365571  0.16297305  0.21270375  1
  H  H37  1  0.55912940  0.22896159  0.34699009  1
  H  H38  1  0.59470090  0.25851316  0.49550263  1
  H  H39  1  0.95934211  0.30704369  0.58010314  1
  H  H40  1  0.90470781  0.33162136  0.74252710  1
  H  H41  1  0.64198542  0.35818169  0.78779581  1
  H  H42  1  0.59567560  0.23571415  0.75236219  1
  H  H43  1  0.77672903  0.26773210  0.86801670  1
  H  H44  1  0.65274358  0.23547574  0.89455141  1
  H  H45  1  0.72972073  0.14952479  0.84176609  1
  H  H46  1  0.93491681  0.21457039  0.44734626  1
  H  H47  1  0.89867579  0.18625947  0.29921928  1
  H  H48  1  0.67076231  0.65747188  0.18341871  1
  H  H49  1  0.74838498  0.70969888  0.10820226  1
  H  H50  1  0.68091442  0.78869448  0.17489358  1
  H  H51  1  0.87522024  0.77370237  0.19950879  1
  H  H52  1  0.85949741  0.63613661  0.21258480  1
  H  H53  1  0.77722645  0.56705687  0.34312683  1
  H  H54  1  0.74163808  0.59962589  0.49252291  1
  H  H55  1  0.69200732  0.95741335  0.58257055  1
  H  H56  1  0.66690944  0.90788032  0.74541113  1
  H  H57  1  0.63316412  0.65898038  0.79398591  1
  H  H58  1  0.75318459  0.60135677  0.75329404  1
  H  H59  1  0.74342310  0.78601069  0.86872218  1
  H  H60  1  0.76924566  0.65995279  0.89335150  1
  H  H61  1  0.85471647  0.72549862  0.83418624  1
  H  H62  1  0.78019986  0.93090363  0.45247002  1
  H  H63  1  0.81373971  0.89774595  0.30372015  1
  Pb  Pb64  1  -0.00061064  -0.00072025  0.98963240  1
  Pb  Pb65  1  0.99765551  0.49721685  0.00465247  1
  Pb  Pb66  1  0.49941672  -0.00344147  1.00001192  1
  Pb  Pb67  1  0.51071988  0.50321780  0.01420212  1
  C  C68  1  0.30789341  0.29446263  0.77545932  1
  C  C69  1  0.28873689  0.27544574  0.68543660  1
  C  C70  1  0.27129840  0.35819009  0.63007132  1
  C  C71  1  0.25351713  0.33809155  0.54658508  1
  C  C72  1  0.25310712  0.23439258  0.51689185  1
  C  C73  1  0.23171700  0.20969295  0.43110783  1
  C  C74  1  0.20119882  0.11949278  0.39178169  1
  C  C75  1  0.18773171  0.14430819  0.30659465  1
  C  C76  1  0.21208890  0.24785260  0.29844439  1
  C  C77  1  0.21125063  0.32290946  0.22881516  1
  C  C78  1  0.27211351  0.15188560  0.57268005  1
  C  C79  1  0.28906050  0.17237435  0.65564953  1
  C  C80  1  0.29333010  0.70072188  0.77871255  1
  C  C81  1  0.27349186  0.71575579  0.68809962  1
  C  C82  1  0.35828474  0.73297395  0.63200230  1
  C  C83  1  0.33850018  0.74740905  0.54805241  1
  C  C84  1  0.23263398  0.74493174  0.51835420  1
  C  C85  1  0.20783000  0.76534933  0.43227578  1
  C  C86  1  0.11489066  0.79578461  0.39279893  1
  C  C87  1  0.14181023  0.80957390  0.30755356  1
  C  C88  1  0.24921105  0.78551814  0.29947859  1
  C  C89  1  0.32917860  0.78876059  0.23084248  1
  C  C90  1  0.14815779  0.72463247  0.57452163  1
  C  C91  1  0.16854387  0.71054200  0.65798956  1
  C  C92  1  0.70503314  0.19125963  0.22252538  1
  C  C93  1  0.72660286  0.20826792  0.31260013  1
  C  C94  1  0.64176515  0.22697256  0.36892621  1
  C  C95  1  0.66142626  0.24298004  0.45257241  1
  C  C96  1  0.76755093  0.24047486  0.48182365  1
  C  C97  1  0.79100141  0.26038847  0.56810876  1
  C  C98  1  0.88174483  0.29164752  0.60845226  1
  C  C99  1  0.85335024  0.30354245  0.69369342  1
  C  C100  1  0.74740172  0.27749914  0.70095938  1
  C  C101  1  0.66770791  0.27823793  0.76981367  1
  C  C102  1  0.85252675  0.21985939  0.42533078  1
  C  C103  1  0.83221603  0.20416717  0.34196496  1
  C  C104  1  0.82168871  0.71328044  0.22345703  1
  C  C105  1  0.79586133  0.73065197  0.31327448  1
  C  C106  1  0.77648708  0.64696389  0.36712093  1
  C  C107  1  0.75714552  0.66499591  0.45114186  1
  C  C108  1  0.75703237  0.76763326  0.48295659  1
  C  C109  1  0.73537820  0.79060008  0.56955367  1
  C  C110  1  0.70555087  0.88134718  0.61053186  1
  C  C111  1  0.69277270  0.85567276  0.69564680  1
  C  C112  1  0.71643374  0.75103281  0.70229199  1
  C  C113  1  0.71506345  0.67595818  0.77188784  1
  C  C114  1  0.77738080  0.85120371  0.42865204  1
  C  C115  1  0.79611113  0.83273921  0.34508668  1
  I  I116  1  0.24597628  0.97257113  0.04554005  1
  I  I117  1  0.25644210  0.50692763  0.03373488  1
  I  I118  1  0.74623879  0.98061846  0.93210749  1
  I  I119  1  0.75839262  0.46680137  0.95677034  1
  I  I120  1  0.04565105  0.24279330  -0.00074472  1
  I  I121  1  0.95400835  0.73989156  0.01503644  1
  I  I122  1  0.50937931  0.24886962  0.01709706  1
  I  I123  1  0.49809362  0.74750036  0.98700642  1
  I  I124  1  0.06839076  0.98782247  0.79684079  1
  I  I125  1  0.95280482  0.00419532  0.18011739  1
  I  I126  1  0.03585503  0.50910707  0.80686020  1
  I  I127  1  0.93996309  0.44322655  0.19417034  1
  I  I128  1  0.45853993  0.01102427  0.80471339  1
  I  I129  1  0.55971803  0.95293724  0.18728324  1
  I  I130  1  0.49150971  0.49981091  0.82297585  1
  I  I131  1  0.53331391  0.51209827  0.21729461  1
  N  N132  1  0.20632744  0.28454529  0.82647887  1
  N  N133  1  0.25940636  0.27663001  0.15090685  1
  N  N134  1  0.27998800  0.80056360  0.82787691  1
  N  N135  1  0.29005289  0.74016540  0.15239112  1
  N  N136  1  0.71514282  0.29036147  0.17289016  1
  N  N137  1  0.71034132  0.22887906  0.84721643  1
  N  N138  1  0.72368099  0.71753632  0.16923445  1
  N  N139  1  0.77409922  0.71498111  0.84611214  1
  O  O140  1  0.23925196  0.28914483  0.37375362  1
  O  O141  1  0.29080550  0.75821422  0.37501017  1
  O  O142  1  0.70791431  0.25086709  0.62492712  1
  O  O143  1  0.74278636  0.70973638  0.62576404  1
