# generated using pymatgen
data_H15PbC12SI4N2F
_symmetry_space_group_name_H-M   'P 1'
_cell_length_a   12.73302150
_cell_length_b   12.33451336
_cell_length_c   16.60460601
_cell_angle_alpha   92.07870503
_cell_angle_beta   91.29401700
_cell_angle_gamma   89.30207062
_symmetry_Int_Tables_number   1
_chemical_formula_structural   H15PbC12SI4N2F
_chemical_formula_sum   'H60 Pb4 C48 S4 I16 N8 F4'
_cell_volume   2605.29753033
_cell_formula_units_Z   4
loop_
 _symmetry_equiv_pos_site_id
 _symmetry_equiv_pos_as_xyz
  1  'x, y, z'
loop_
 _atom_site_type_symbol
 _atom_site_label
 _atom_site_symmetry_multiplicity
 _atom_site_fract_x
 _atom_site_fract_y
 _atom_site_fract_z
 _atom_site_occupancy
  H  H0  1  0.31639810  0.20545695  0.83112577  1
  H  H1  1  0.35001345  0.33437362  0.81548337  1
  H  H2  1  0.28264236  0.30733678  0.89650268  1
  H  H3  1  0.17262726  0.39360197  0.79624411  1
  H  H4  1  0.12640349  0.26434843  0.82145552  1
  H  H5  1  0.12601805  0.10504736  0.71614908  1
  H  H6  1  0.15069645  0.07227178  0.55967673  1
  H  H7  1  0.28917605  0.07312195  0.46118910  1
  H  H8  1  0.32995010  0.07751788  0.31625264  1
  H  H9  1  0.34957051  0.17125847  0.19644891  1
  H  H10  1  0.39028790  0.30736598  0.21594084  1
  H  H11  1  0.27757255  0.29919480  0.10556600  1
  H  H12  1  0.21536708  0.36959035  0.17832517  1
  H  H13  1  0.17757786  0.24395867  0.15245908  1
  H  H14  1  0.19886258  0.41304897  0.45856560  1
  H  H15  1  0.20811743  0.69747309  0.84124468  1
  H  H16  1  0.32529993  0.64415671  0.81283519  1
  H  H17  1  0.31805691  0.72127294  0.89655903  1
  H  H18  1  0.39431978  0.82440829  0.79569120  1
  H  H19  1  0.27375847  0.88225228  0.82749492  1
  H  H20  1  0.11087091  0.88111640  0.72651813  1
  H  H21  1  0.07572522  0.85346932  0.56976992  1
  H  H22  1  0.07588232  0.71216612  0.46484543  1
  H  H23  1  0.07701690  0.67545492  0.31733940  1
  H  H24  1  0.16287419  0.66346530  0.19371607  1
  H  H25  1  0.29423101  0.61364090  0.20605533  1
  H  H26  1  0.29572591  0.74269477  0.10795795  1
  H  H27  1  0.35281290  0.80240821  0.18783311  1
  H  H28  1  0.22811091  0.83617801  0.16246870  1
  H  H29  1  0.40420828  0.79923740  0.46000097  1
  H  H30  1  0.79246068  0.19249357  0.15931995  1
  H  H31  1  0.67034255  0.14501846  0.17822929  1
  H  H32  1  0.69049295  0.22127132  0.10002190  1
  H  H33  1  0.60549266  0.32633829  0.20710149  1
  H  H34  1  0.72690707  0.37975058  0.17887916  1
  H  H35  1  0.88727481  0.37933348  0.27956504  1
  H  H36  1  0.92345665  0.35259234  0.43481061  1
  H  H37  1  0.92520389  0.20630319  0.53449913  1
  H  H38  1  0.91859208  0.16279592  0.67888541  1
  H  H39  1  0.82599759  0.14066321  0.79784303  1
  H  H40  1  0.69259179  0.10245860  0.78052032  1
  H  H41  1  0.71268906  0.22472674  0.89133635  1
  H  H42  1  0.63779610  0.28340704  0.82009735  1
  H  H43  1  0.76436355  0.32244235  0.83516865  1
  H  H44  1  0.59708007  0.30281196  0.53995103  1
  H  H45  1  0.81775030  0.80066552  0.17506157  1
  H  H46  1  0.86131800  0.67249667  0.18462646  1
  H  H47  1  0.79006493  0.70422235  0.10425540  1
  H  H48  1  0.69108421  0.60280091  0.20185748  1
  H  H49  1  0.63172766  0.72697734  0.17483479  1
  H  H50  1  0.62593654  0.89093973  0.27871989  1
  H  H51  1  0.64986598  0.92696114  0.43537062  1
  H  H52  1  0.79776982  0.92623043  0.53851983  1
  H  H53  1  0.84291286  0.91962865  0.68442039  1
  H  H54  1  0.85773816  0.82701472  0.80551514  1
  H  H55  1  0.90486790  0.69286696  0.78471012  1
  H  H56  1  0.79260317  0.70507033  0.89473053  1
  H  H57  1  0.74618356  0.61849189  0.82226500  1
  H  H58  1  0.68720113  0.74014452  0.83671667  1
  H  H59  1  0.69708568  0.59195125  0.54014250  1
  Pb  Pb60  1  0.00948076  0.99519751  0.01996820  1
  Pb  Pb61  1  0.98496896  0.48369677  0.99817557  1
  Pb  Pb62  1  0.50399757  0.01182071  0.98583089  1
  Pb  Pb63  1  0.49254842  0.50263796  0.99290210  1
  C  C64  1  0.18836041  0.30608710  0.79014514  1
  C  C65  1  0.19170158  0.26484321  0.70475407  1
  C  C66  1  0.15959046  0.16365391  0.67666272  1
  C  C67  1  0.17284790  0.14644055  0.59303143  1
  C  C68  1  0.21488600  0.23486904  0.55653317  1
  C  C69  1  0.24028996  0.24160492  0.47126855  1
  C  C70  1  0.27677248  0.14788730  0.42902484  1
  C  C71  1  0.29959031  0.15025961  0.34757245  1
  C  C72  1  0.28830833  0.24606253  0.30498647  1
  C  C73  1  0.32406630  0.25135222  0.21986279  1
  C  C74  1  0.25273897  0.33786251  0.34856496  1
  C  C75  1  0.22815014  0.33840509  0.42938708  1
  C  C76  1  0.30895012  0.81414278  0.79273634  1
  C  C77  1  0.26553078  0.80956281  0.70882279  1
  C  C78  1  0.16655505  0.84373701  0.68458252  1
  C  C79  1  0.14812584  0.82947469  0.60075942  1
  C  C80  1  0.23349509  0.78501404  0.56047956  1
  C  C81  1  0.23883852  0.75927476  0.47399240  1
  C  C82  1  0.14757743  0.72412010  0.43184023  1
  C  C83  1  0.14805959  0.70333127  0.34907723  1
  C  C84  1  0.23952282  0.71473026  0.30495288  1
  C  C85  1  0.24163259  0.68393854  0.21693223  1
  C  C86  1  0.32927764  0.74784662  0.34853381  1
  C  C87  1  0.33158503  0.77088809  0.43083309  1
  C  C88  1  0.69078639  0.31315805  0.21010765  1
  C  C89  1  0.73414408  0.30824192  0.29377773  1
  C  C90  1  0.83237983  0.34255635  0.31966834  1
  C  C91  1  0.85165056  0.32816349  0.40267090  1
  C  C92  1  0.76775319  0.28334236  0.44071755  1
  C  C93  1  0.76209273  0.25681290  0.52566421  1
  C  C94  1  0.85212721  0.21808225  0.56679609  1
  C  C95  1  0.84840076  0.19309172  0.64775284  1
  C  C96  1  0.75509567  0.20457480  0.69064642  1
  C  C97  1  0.74887643  0.16873751  0.77565763  1
  C  C98  1  0.66746432  0.24412573  0.64844253  1
  C  C99  1  0.66828431  0.27039777  0.56814211  1
  C  C100  1  0.69804911  0.69119575  0.20833180  1
  C  C101  1  0.69837161  0.73278870  0.29360666  1
  C  C102  1  0.66259696  0.83372506  0.31952817  1
  C  C103  1  0.67523006  0.85290737  0.40334870  1
  C  C104  1  0.72002311  0.76565559  0.44198084  1
  C  C105  1  0.74530439  0.75991673  0.52798541  1
  C  C106  1  0.78472915  0.85214846  0.57061039  1
  C  C107  1  0.80963812  0.84857709  0.65248051  1
  C  C108  1  0.79653649  0.75338526  0.69486897  1
  C  C109  1  0.83558332  0.74670421  0.78034998  1
  C  C110  1  0.75545779  0.66397881  0.65118603  1
  C  C111  1  0.72996016  0.66455302  0.56982565  1
  S  S112  1  0.23844059  0.33925610  0.62709587  1
  S  S113  1  0.33639112  0.76039159  0.62743739  1
  S  S114  1  0.66491687  0.25857594  0.37264407  1
  S  S115  1  0.74683813  0.65996900  0.37361941  1
  I  I116  1  0.25011880  0.00507638  0.01563829  1
  I  I117  1  0.23223987  0.51253696  0.98726480  1
  I  I118  1  0.74558566  0.04730526  0.98150337  1
  I  I119  1  0.73451521  0.47960600  0.01574209  1
  I  I120  1  0.99039370  0.24165615  0.07214223  1
  I  I121  1  0.94735134  0.73845395  0.98543702  1
  I  I122  1  0.45748017  0.25759038  0.01718571  1
  I  I123  1  0.48027133  0.75614955  0.99448448  1
  I  I124  1  1.00265276  0.01555085  0.82934559  1
  I  I125  1  0.02091834  0.93334897  0.20508480  1
  I  I126  1  0.92510618  0.44237886  0.81105404  1
  I  I127  1  0.99240565  0.52678428  0.19137486  1
  I  I128  1  0.47026989  0.05557479  0.80033988  1
  I  I129  1  0.51642364  0.01442551  0.18301078  1
  I  I130  1  0.46887875  0.49776785  0.79031975  1
  I  I131  1  0.47350581  0.51397287  0.18032519  1
  N  N132  1  0.29020561  0.28571557  0.83610972  1
  N  N133  1  0.24267235  0.29333771  0.16115892  1
  N  N134  1  0.28700442  0.71268925  0.83807150  1
  N  N135  1  0.28203031  0.77248619  0.16580165  1
  N  N136  1  0.71321519  0.21140165  0.15954145  1
  N  N137  1  0.71280306  0.25684197  0.83427174  1
  N  N138  1  0.79692667  0.72040555  0.16570843  1
  N  N139  1  0.75822258  0.69967466  0.83660880  1
  F  F140  1  0.24090383  0.43290865  0.30838166  1
  F  F141  1  0.42014042  0.76067500  0.30691188  1
  F  F142  1  0.57587791  0.25934303  0.68922568  1
  F  F143  1  0.73849481  0.57061662  0.69110911  1
