# generated using pymatgen
data_H16PbC12(I2N)2
_symmetry_space_group_name_H-M   'P 1'
_cell_length_a   12.66237123
_cell_length_b   12.49599539
_cell_length_c   15.00489774
_cell_angle_alpha   90.72762043
_cell_angle_beta   88.98019004
_cell_angle_gamma   90.17594058
_symmetry_Int_Tables_number   1
_chemical_formula_structural   H16PbC12(I2N)2
_chemical_formula_sum   'H64 Pb4 C48 I16 N8'
_cell_volume   2373.63185377
_cell_formula_units_Z   4
loop_
 _symmetry_equiv_pos_site_id
 _symmetry_equiv_pos_as_xyz
  1  'x, y, z'
loop_
 _atom_site_type_symbol
 _atom_site_label
 _atom_site_symmetry_multiplicity
 _atom_site_fract_x
 _atom_site_fract_y
 _atom_site_fract_z
 _atom_site_occupancy
  H  H0  1  0.19807415  0.25393485  0.83057935  1
  H  H1  1  0.15218542  0.13455030  0.79655106  1
  H  H2  1  0.24592133  0.14126477  0.87443525  1
  H  H3  1  0.31903198  0.08170697  0.73345301  1
  H  H4  1  0.37654855  0.20046331  0.77594551  1
  H  H5  1  0.30447969  0.38202319  0.71924241  1
  H  H6  1  0.27587812  0.47807145  0.57917498  1
  H  H7  1  0.24212876  0.47443268  0.41637080  1
  H  H8  1  0.21358622  0.37216783  0.27731487  1
  H  H9  1  0.18560818  0.07114809  0.26886003  1
  H  H10  1  0.13050552  0.18791660  0.22323336  1
  H  H11  1  0.26381767  0.12006858  0.12863658  1
  H  H12  1  0.30932667  0.23510816  0.16698499  1
  H  H13  1  0.35555710  0.11977737  0.20774823  1
  H  H14  1  0.23529719  0.07467525  0.41928753  1
  H  H15  1  0.26315615  0.07850725  0.58319820  1
  H  H16  1  0.24087463  0.79359917  0.83794501  1
  H  H17  1  0.13342085  0.84900015  0.79300209  1
  H  H18  1  0.12100892  0.75677207  0.87236975  1
  H  H19  1  0.07739117  0.67439278  0.73534208  1
  H  H20  1  0.19425167  0.61922741  0.77847381  1
  H  H21  1  0.37493180  0.69585344  0.71977102  1
  H  H22  1  0.47263560  0.72627690  0.57880666  1
  H  H23  1  0.47269030  0.75765835  0.41511512  1
  H  H24  1  0.37470582  0.78301745  0.27667380  1
  H  H25  1  0.07851307  0.81568049  0.27352920  1
  H  H26  1  0.19528644  0.86943860  0.22577598  1
  H  H27  1  0.12237788  0.73909930  0.13192272  1
  H  H28  1  0.23510561  0.68849842  0.16460392  1
  H  H29  1  0.12043249  0.64354173  0.20886452  1
  H  H30  1  0.07810952  0.76191257  0.42191904  1
  H  H31  1  0.07814990  0.73245219  0.58537735  1
  H  H32  1  0.76050486  0.30903120  0.16832671  1
  H  H33  1  0.87511946  0.35813844  0.20725101  1
  H  H34  1  0.87510132  0.26522962  0.12654886  1
  H  H35  1  0.92604586  0.18796384  0.26431644  1
  H  H36  1  0.81141516  0.12886770  0.21914655  1
  H  H37  1  0.62884774  0.21264310  0.27538166  1
  H  H38  1  0.52724847  0.23934047  0.41514263  1
  H  H39  1  0.52237854  0.27104265  0.57900271  1
  H  H40  1  0.61598829  0.30272295  0.71978732  1
  H  H41  1  0.91198110  0.33505086  0.72931300  1
  H  H42  1  0.79263561  0.38694839  0.77544696  1
  H  H43  1  0.86614974  0.26381779  0.87037131  1
  H  H44  1  0.75539313  0.20856172  0.83501257  1
  H  H45  1  0.87155418  0.16418129  0.79332316  1
  H  H46  1  0.91679747  0.26850004  0.58216466  1
  H  H47  1  0.92183687  0.23622535  0.41777553  1
  H  H48  1  0.68895415  0.76176447  0.16654764  1
  H  H49  1  0.64285511  0.87799531  0.20960794  1
  H  H50  1  0.73612381  0.87703205  0.12958957  1
  H  H51  1  0.81190596  0.92498125  0.26922209  1
  H  H52  1  0.86753963  0.80827964  0.22066092  1
  H  H53  1  0.78461963  0.62420827  0.27303790  1
  H  H54  1  0.75985513  0.52261332  0.41155954  1
  H  H55  1  0.72767873  0.51993827  0.57550590  1
  H  H56  1  0.69789157  0.61708596  0.71812378  1
  H  H57  1  0.67462235  0.91827150  0.73113335  1
  H  H58  1  0.61895549  0.80072923  0.77643320  1
  H  H59  1  0.74444504  0.87850124  0.87067109  1
  H  H60  1  0.79021602  0.76018075  0.83937318  1
  H  H61  1  0.84250572  0.87123852  0.79391795  1
  H  H62  1  0.73509525  0.91960906  0.58493391  1
  H  H63  1  0.76307398  0.92258468  0.42065189  1
  Pb  Pb64  1  0.99763181  0.00217512  0.97830378  1
  Pb  Pb65  1  1.00953889  0.48921405  0.00760391  1
  Pb  Pb66  1  0.50094420  0.99545844  0.01243931  1
  Pb  Pb67  1  0.49038312  0.49774512  0.00819035  1
  C  C68  1  0.30542925  0.16730729  0.74505940  1
  C  C69  1  0.28158188  0.22368357  0.66028436  1
  C  C70  1  0.28614341  0.33725727  0.65845352  1
  C  C71  1  0.27172529  0.39083153  0.58012515  1
  C  C72  1  0.25432155  0.33395231  0.49917510  1
  C  C73  1  0.24113903  0.38712712  0.41709558  1
  C  C74  1  0.22618976  0.32987178  0.33941355  1
  C  C75  1  0.22416678  0.21630266  0.33991000  1
  C  C76  1  0.20047577  0.15589759  0.25581914  1
  C  C77  1  0.23687511  0.16217889  0.41886301  1
  C  C78  1  0.25161137  0.21895288  0.50024035  1
  C  C79  1  0.26460209  0.16598788  0.58246003  1
  C  C80  1  0.16130097  0.69010925  0.74673944  1
  C  C81  1  0.21942481  0.71557949  0.66168912  1
  C  C82  1  0.33171586  0.71410409  0.65939380  1
  C  C83  1  0.38648328  0.72933341  0.58042712  1
  C  C84  1  0.33224374  0.74486359  0.49956795  1
  C  C85  1  0.38654598  0.75753735  0.41677234  1
  C  C86  1  0.33169914  0.77084247  0.33940785  1
  C  C87  1  0.21972687  0.77245627  0.34100481  1
  C  C88  1  0.16160736  0.79851800  0.25823050  1
  C  C89  1  0.16445495  0.76011030  0.42064308  1
  C  C90  1  0.21872867  0.74605746  0.50151917  1
  C  C91  1  0.16450284  0.73214962  0.58415529  1
  C  C92  1  0.84194156  0.20091308  0.25269693  1
  C  C93  1  0.78249097  0.22404003  0.33797019  1
  C  C94  1  0.67040999  0.22541172  0.33774953  1
  C  C95  1  0.61340558  0.23935320  0.41588403  1
  C  C96  1  0.66530942  0.25255614  0.49835703  1
  C  C97  1  0.60851951  0.26847701  0.57985734  1
  C  C98  1  0.66075367  0.28473328  0.65854653  1
  C  C99  1  0.77286308  0.28486685  0.65965047  1
  C  C100  1  0.82880322  0.31633487  0.74302262  1
  C  C101  1  0.83044533  0.26730245  0.58146993  1
  C  C102  1  0.77887058  0.25147963  0.49912901  1
  C  C103  1  0.83548219  0.23706070  0.41731462  1
  C  C104  1  0.79682609  0.84027252  0.25479261  1
  C  C105  1  0.77319116  0.78033423  0.33843041  1
  C  C106  1  0.77238241  0.66678086  0.33631302  1
  C  C107  1  0.75961448  0.60993667  0.41363419  1
  C  C108  1  0.74738333  0.66357068  0.49706803  1
  C  C109  1  0.73176730  0.60721227  0.57784949  1
  C  C110  1  0.71718234  0.66135139  0.65756024  1
  C  C111  1  0.71932652  0.77498019  0.66046302  1
  C  C112  1  0.69032687  0.83405615  0.74450080  1
  C  C113  1  0.73560999  0.83208167  0.58293464  1
  C  C114  1  0.74894702  0.77863981  0.49965314  1
  C  C115  1  0.76178121  0.83504342  0.41874339  1
  I  I116  1  0.25096546  0.94798910  0.99222355  1
  I  I117  1  0.25681251  0.58884049  0.99888840  1
  I  I118  1  0.75511561  0.06149188  1.00587521  1
  I  I119  1  0.76810500  0.42883415  0.98984359  1
  I  I120  1  0.06593647  0.24293490  0.02750397  1
  I  I121  1  0.95123760  0.74528084  0.97955837  1
  I  I122  1  0.41885115  0.25242283  0.00115305  1
  I  I123  1  0.58261325  0.75610241  0.99298184  1
  I  I124  1  -0.00154707  0.00277080  0.74307611  1
  I  I125  1  0.00193361  0.98726225  0.17400762  1
  I  I126  1  0.06973771  0.43135190  0.81147132  1
  I  I127  1  0.00093297  0.49879721  0.23764272  1
  I  I128  1  0.52253604  0.02981528  0.81407227  1
  I  I129  1  0.49845182  0.99900714  0.24387879  1
  I  I130  1  0.50236598  0.50251491  0.79480664  1
  I  I131  1  0.50068760  0.50835132  0.21833756  1
  N  N132  1  0.21983275  0.17529723  0.81613737  1
  N  N133  1  0.28728212  0.15905603  0.18641964  1
  N  N134  1  0.16558871  0.77823190  0.81615921  1
  N  N135  1  0.16122960  0.71251835  0.18754400  1
  N  N136  1  0.83623046  0.28840405  0.18515295  1
  N  N137  1  0.83001355  0.23198061  0.81440334  1
  N  N138  1  0.71132231  0.83766902  0.18668674  1
  N  N139  1  0.77268905  0.83508969  0.81580834  1
