# generated using pymatgen
data_H18PbC13S(I2N)2
_symmetry_space_group_name_H-M   'P 1'
_cell_length_a   12.99252899
_cell_length_b   12.80008316
_cell_length_c   16.77614308
_cell_angle_alpha   91.06625813
_cell_angle_beta   90.71608113
_cell_angle_gamma   89.19229637
_symmetry_Int_Tables_number   1
_chemical_formula_structural   H18PbC13S(I2N)2
_chemical_formula_sum   'H72 Pb4 C52 S4 I16 N8'
_cell_volume   2788.99488272
_cell_formula_units_Z   4
loop_
 _symmetry_equiv_pos_site_id
 _symmetry_equiv_pos_as_xyz
  1  'x, y, z'
loop_
 _atom_site_type_symbol
 _atom_site_label
 _atom_site_symmetry_multiplicity
 _atom_site_fract_x
 _atom_site_fract_y
 _atom_site_fract_z
 _atom_site_occupancy
  H  H0  1  0.41795100  0.20759694  0.77124440  1
  H  H1  1  0.32523732  0.14562574  0.82881373  1
  H  H2  1  0.39140803  0.25676435  0.86874664  1
  H  H3  1  0.30901919  0.37147299  0.77050065  1
  H  H4  1  0.21937386  0.34662371  0.89031567  1
  H  H5  1  0.15667570  0.24230180  0.85440919  1
  H  H6  1  0.13154978  0.36061628  0.81750874  1
  H  H7  1  0.19119087  0.09295599  0.72645860  1
  H  H8  1  0.14376780  0.06804196  0.57529863  1
  H  H9  1  0.13539803  0.40477102  0.47797419  1
  H  H10  1  0.10845200  0.42238779  0.33217995  1
  H  H11  1  0.10206164  0.19326235  0.19121988  1
  H  H12  1  0.06460890  0.32752883  0.20513607  1
  H  H13  1  0.19561998  0.31023372  0.11093745  1
  H  H14  1  0.24054967  0.37714258  0.18926786  1
  H  H15  1  0.27752323  0.25269585  0.17532425  1
  H  H16  1  0.18597048  0.09643233  0.29743974  1
  H  H17  1  0.21764066  0.07941095  0.44240798  1
  H  H18  1  0.21068197  0.57223189  0.76431204  1
  H  H19  1  0.14696327  0.66917065  0.82252109  1
  H  H20  1  0.25487588  0.60017686  0.86313723  1
  H  H21  1  0.37083034  0.67977232  0.76608595  1
  H  H22  1  0.34609077  0.77046456  0.88876564  1
  H  H23  1  0.24328549  0.83618432  0.85597068  1
  H  H24  1  0.36018852  0.85916939  0.81827076  1
  H  H25  1  0.09706574  0.80970554  0.72745225  1
  H  H26  1  0.07250736  0.86078957  0.57786057  1
  H  H27  1  0.40347550  0.86634351  0.47878351  1
  H  H28  1  0.42175042  0.89149006  0.33368147  1
  H  H29  1  0.19796373  0.89717949  0.19213013  1
  H  H30  1  0.32855063  0.93492357  0.20727512  1
  H  H31  1  0.31480457  0.80492656  0.10875143  1
  H  H32  1  0.38138398  0.75446145  0.18496216  1
  H  H33  1  0.25931071  0.71966856  0.16911844  1
  H  H34  1  0.10327449  0.81215621  0.29671367  1
  H  H35  1  0.08539420  0.78365737  0.44148773  1
  H  H36  1  0.79745249  0.07160399  0.22672624  1
  H  H37  1  0.85562104  0.16891741  0.17064852  1
  H  H38  1  0.74746001  0.09964472  0.13046713  1
  H  H39  1  0.63286114  0.17934987  0.23069263  1
  H  H40  1  0.65513912  0.27580752  0.11326816  1
  H  H41  1  0.75917666  0.33704142  0.15017792  1
  H  H42  1  0.64262338  0.36171664  0.18902283  1
  H  H43  1  0.90291618  0.30901354  0.27345600  1
  H  H44  1  0.92602500  0.36207125  0.42429899  1
  H  H45  1  0.59668745  0.36430501  0.52449983  1
  H  H46  1  0.57836253  0.38613120  0.67064155  1
  H  H47  1  0.80288171  0.38409008  0.81266780  1
  H  H48  1  0.67166863  0.42528186  0.79922802  1
  H  H49  1  0.67480877  0.28499236  0.88739718  1
  H  H50  1  0.62344067  0.24071498  0.80310717  1
  H  H51  1  0.74452885  0.20789299  0.82594843  1
  H  H52  1  0.89922291  0.30501005  0.70329578  1
  H  H53  1  0.91707729  0.28033532  0.55757178  1
  H  H54  1  0.92475461  0.79656718  0.23102612  1
  H  H55  1  0.82591995  0.85834104  0.17512192  1
  H  H56  1  0.89597218  0.74992854  0.13357718  1
  H  H57  1  0.82281431  0.63100360  0.23136975  1
  H  H58  1  0.72837750  0.65344428  0.11179076  1
  H  H59  1  0.66539352  0.75976398  0.14627950  1
  H  H60  1  0.64234969  0.64168621  0.18411927  1
  H  H61  1  0.69616241  0.90694635  0.27565829  1
  H  H62  1  0.64194904  0.92979127  0.42508001  1
  H  H63  1  0.63117053  0.59469172  0.52287779  1
  H  H64  1  0.60885497  0.57795809  0.66812545  1
  H  H65  1  0.61048132  0.80114266  0.81130555  1
  H  H66  1  0.58113039  0.66605683  0.79689864  1
  H  H67  1  0.71542615  0.67666837  0.88890344  1
  H  H68  1  0.77234166  0.63248918  0.80645204  1
  H  H69  1  0.78518689  0.75701771  0.83557781  1
  H  H70  1  0.69640233  0.89895968  0.70423879  1
  H  H71  1  0.72036411  0.91563775  0.55916133  1
  Pb  Pb72  1  0.99091556  0.00146216  0.99061009  1
  Pb  Pb73  1  0.99609408  0.51352855  0.99799968  1
  Pb  Pb74  1  0.50577068  -0.00229504  0.99242407  1
  Pb  Pb75  1  0.49003665  0.49807097  0.00917742  1
  C  C76  1  0.35684375  0.22207812  0.81464598  1
  C  C77  1  0.27584323  0.29382408  0.77834904  1
  C  C78  1  0.23515786  0.25249414  0.70055074  1
  C  C79  1  0.20028314  0.15346806  0.68243821  1
  C  C80  1  0.17500927  0.13984726  0.60078895  1
  C  C81  1  0.19193204  0.22799147  0.55635324  1
  C  C82  1  0.17798548  0.24075262  0.47062915  1
  C  C83  1  0.14900085  0.33763298  0.43820065  1
  C  C84  1  0.13397830  0.34759764  0.35644030  1
  C  C85  1  0.14736276  0.26091340  0.30500071  1
  C  C86  1  0.12473883  0.26882467  0.21765027  1
  C  C87  1  0.17738829  0.16456861  0.33696175  1
  C  C88  1  0.19300486  0.15450824  0.41855475  1
  C  C89  1  0.22265288  0.63482881  0.80874276  1
  C  C90  1  0.29423250  0.71536978  0.77522248  1
  C  C91  1  0.25415386  0.76030627  0.69899720  1
  C  C92  1  0.15682448  0.79979328  0.68280968  1
  C  C93  1  0.14344518  0.82709619  0.60198633  1
  C  C94  1  0.23022062  0.80823435  0.55634593  1
  C  C95  1  0.24306670  0.82298661  0.47075716  1
  C  C96  1  0.33799521  0.85212848  0.43882536  1
  C  C97  1  0.34835018  0.86612922  0.35721760  1
  C  C98  1  0.26426233  0.85115750  0.30502947  1
  C  C99  1  0.27262482  0.87345270  0.21799128  1
  C  C100  1  0.16957606  0.82205053  0.33657105  1
  C  C101  1  0.15907326  0.80786080  0.41806756  1
  C  C102  1  0.78121602  0.13459607  0.18489190  1
  C  C103  1  0.70896595  0.21441066  0.22336080  1
  C  C104  1  0.74861064  0.25690384  0.30124031  1
  C  C105  1  0.84390783  0.29887944  0.31807824  1
  C  C106  1  0.85655710  0.32722856  0.39941553  1
  C  C107  1  0.77094675  0.30684147  0.44463884  1
  C  C108  1  0.75825646  0.32087524  0.53060511  1
  C  C109  1  0.66269950  0.34943518  0.56377982  1
  C  C110  1  0.65252538  0.36173919  0.64592954  1
  C  C111  1  0.73749198  0.34580138  0.69702194  1
  C  C112  1  0.72854503  0.36362333  0.78521973  1
  C  C113  1  0.83261941  0.31681234  0.66416729  1
  C  C114  1  0.84299895  0.30448612  0.58216513  1
  C  C115  1  0.86184068  0.78238566  0.18842457  1
  C  C116  1  0.78565206  0.70809180  0.22408383  1
  C  C117  1  0.74282570  0.74712375  0.30173684  1
  C  C118  1  0.70450683  0.84577858  0.31959830  1
  C  C119  1  0.67549520  0.85809831  0.40015981  1
  C  C120  1  0.69258998  0.76913482  0.44458334  1
  C  C121  1  0.67798755  0.75636146  0.53028019  1
  C  C122  1  0.64742721  0.66111832  0.56255133  1
  C  C123  1  0.63531785  0.65162010  0.64446950  1
  C  C124  1  0.65404930  0.73632519  0.69668527  1
  C  C125  1  0.63731461  0.72678107  0.78457030  1
  C  C126  1  0.68377585  0.83164567  0.66470102  1
  C  C127  1  0.69561616  0.84149484  0.58291798  1
  S  S128  1  0.23785722  0.32829662  0.61680607  1
  S  S129  1  0.32886045  0.75763237  0.61481258  1
  S  S130  1  0.67466068  0.25313132  0.38550367  1
  S  S131  1  0.74336722  0.66976626  0.38495105  1
  I  I132  1  0.26291588  0.97837384  0.00210846  1
  I  I133  1  0.25212107  0.47983109  0.01342246  1
  I  I134  1  0.75188699  0.94915281  0.97342629  1
  I  I135  1  0.74746274  0.50691664  0.99979181  1
  I  I136  1  0.01775931  0.25776722  0.00636685  1
  I  I137  1  0.02595614  0.75257239  0.97077247  1
  I  I138  1  0.53621850  0.24669736  0.00240048  1
  I  I139  1  0.49989464  0.74186111  -0.00015140  1
  I  I140  1  -0.00048692  0.02380907  0.80436385  1
  I  I141  1  0.02442740  0.00092309  0.17921839  1
  I  I142  1  0.98218654  0.49321679  0.80429296  1
  I  I143  1  0.01383101  0.53503292  0.18701248  1
  I  I144  1  0.50311406  0.98662417  0.79880263  1
  I  I145  1  0.52709588  0.99069288  0.18053313  1
  I  I146  1  0.47523605  0.48814522  0.82209598  1
  I  I147  1  0.50178968  0.50748137  0.20715751  1
  N  N148  1  0.19050552  0.31127687  0.83843486  1
  N  N149  1  0.21637448  0.30414820  0.17081227  1
  N  N150  1  0.31114181  0.80064490  0.83798358  1
  N  N151  1  0.30949020  0.78108546  0.16750030  1
  N  N152  1  0.69110788  0.30322184  0.16580263  1
  N  N153  1  0.69109265  0.26805556  0.82787386  1
  N  N154  1  0.69970189  0.69019770  0.16298325  1
  N  N155  1  0.73401721  0.69628742  0.83116313  1
