# generated using pymatgen
data_H17PbC12I4N3
_symmetry_space_group_name_H-M   'P 1'
_cell_length_a   12.43433065
_cell_length_b   12.44852470
_cell_length_c   16.46736524
_cell_angle_alpha   89.62801317
_cell_angle_beta   88.07132001
_cell_angle_gamma   89.14276437
_symmetry_Int_Tables_number   1
_chemical_formula_structural   H17PbC12I4N3
_chemical_formula_sum   'H68 Pb4 C48 I16 N12'
_cell_volume   2547.19331546
_cell_formula_units_Z   4
loop_
 _symmetry_equiv_pos_site_id
 _symmetry_equiv_pos_as_xyz
  1  'x, y, z'
loop_
 _atom_site_type_symbol
 _atom_site_label
 _atom_site_symmetry_multiplicity
 _atom_site_fract_x
 _atom_site_fract_y
 _atom_site_fract_z
 _atom_site_occupancy
  H  H0  1  0.14926686  0.30845724  0.82178264  1
  H  H1  1  0.22866226  0.26105016  0.89330960  1
  H  H2  1  0.18245268  0.17597865  0.82380815  1
  H  H3  1  0.33311734  0.35825710  0.79437128  1
  H  H4  1  0.37217552  0.21994857  0.79807004  1
  H  H5  1  0.32027246  0.09429827  0.68961486  1
  H  H6  1  0.27970544  0.07214597  0.54467586  1
  H  H7  1  0.13619579  0.06250736  0.43933983  1
  H  H8  1  0.11916756  0.10212658  0.27830882  1
  H  H9  1  0.27240487  0.37889184  0.23321034  1
  H  H10  1  0.14117146  0.34419891  0.20456603  1
  H  H11  1  0.33473524  0.20099326  0.17955523  1
  H  H12  1  0.21193308  0.17643573  0.14978062  1
  H  H13  1  0.27518925  0.28223555  0.10974472  1
  H  H14  1  0.27326294  0.36359775  0.38511149  1
  H  H15  1  0.20703320  0.41160017  0.52688473  1
  H  H16  1  0.25075079  0.43368378  0.67090841  1
  H  H17  1  0.30485408  0.85280381  0.82195316  1
  H  H18  1  0.25016700  0.77271413  0.89315863  1
  H  H19  1  0.17294359  0.82621769  0.82085598  1
  H  H20  1  0.35675897  0.66976247  0.79538564  1
  H  H21  1  0.21964635  0.63147107  0.80225538  1
  H  H22  1  0.09498212  0.67741942  0.69332550  1
  H  H23  1  0.07379795  0.71559924  0.54675701  1
  H  H24  1  0.05840368  0.85778425  0.43759900  1
  H  H25  1  0.09912240  0.87647771  0.27564448  1
  H  H26  1  0.38469092  0.73083899  0.22969097  1
  H  H27  1  0.34817596  0.86424789  0.20281934  1
  H  H28  1  0.21088605  0.67495477  0.17402131  1
  H  H29  1  0.18591450  0.80053451  0.14530262  1
  H  H30  1  0.29413279  0.73716730  0.10571057  1
  H  H31  1  0.36841962  0.72941100  0.38300743  1
  H  H32  1  0.41040121  0.79492469  0.52345383  1
  H  H33  1  0.43128736  0.75476753  0.66871567  1
  H  H34  1  0.69273027  0.35041224  0.18106008  1
  H  H35  1  0.74180841  0.27039486  0.10740523  1
  H  H36  1  0.82460826  0.32121271  0.17609779  1
  H  H37  1  0.64552141  0.16534443  0.20694252  1
  H  H38  1  0.78427585  0.12900093  0.19869254  1
  H  H39  1  0.90911951  0.17682157  0.30759877  1
  H  H40  1  0.92903501  0.21607324  0.45315016  1
  H  H41  1  0.93336345  0.36852773  0.55996919  1
  H  H42  1  0.89171585  0.38617322  0.72196863  1
  H  H43  1  0.61605411  0.22931872  0.76965375  1
  H  H44  1  0.65146348  0.35974226  0.79962831  1
  H  H45  1  0.78858680  0.16388218  0.82305415  1
  H  H46  1  0.81932843  0.28677357  0.85092757  1
  H  H47  1  0.71083428  0.22973456  0.89322813  1
  H  H48  1  0.63625340  0.22205020  0.61687600  1
  H  H49  1  0.58934611  0.29249762  0.47639235  1
  H  H50  1  0.56972343  0.24979286  0.33109357  1
  H  H51  1  0.66262705  0.69143988  0.17666542  1
  H  H52  1  0.74442801  0.74157268  0.10361174  1
  H  H53  1  0.68960732  0.82401445  0.17360302  1
  H  H54  1  0.84717605  0.64526140  0.20187841  1
  H  H55  1  0.87994512  0.78452977  0.19667424  1
  H  H56  1  0.82510716  0.90760992  0.30781192  1
  H  H57  1  0.78215947  0.92761110  0.45478797  1
  H  H58  1  0.63249126  0.93559770  0.56545338  1
  H  H59  1  0.61610977  0.89480318  0.72758117  1
  H  H60  1  0.77010725  0.61249741  0.76259834  1
  H  H61  1  0.64217548  0.65629948  0.79996196  1
  H  H62  1  0.84237444  0.78392061  0.81469298  1
  H  H63  1  0.72186156  0.81631828  0.85369340  1
  H  H64  1  0.78159351  0.70493515  0.88649696  1
  H  H65  1  0.77634254  0.63320045  0.61146391  1
  H  H66  1  0.71010543  0.58971598  0.47148010  1
  H  H67  1  0.75574625  0.56988211  0.32512686  1
  Pb  Pb68  1  0.99236931  -0.00508808  0.98772036  1
  Pb  Pb69  1  0.00348865  0.49401579  0.00595768  1
  Pb  Pb70  1  0.48957024  0.00396059  0.00838478  1
  Pb  Pb71  1  0.50283244  0.50124707  0.00807589  1
  C  C72  1  0.30910292  0.27659500  0.77913549  1
  C  C73  1  0.28666846  0.26517540  0.69064931  1
  C  C74  1  0.29441955  0.16372014  0.65404605  1
  C  C75  1  0.27153557  0.15107568  0.57273846  1
  C  C76  1  0.23939507  0.23965372  0.52527368  1
  C  C77  1  0.21198473  0.22162889  0.44120517  1
  C  C78  1  0.16353450  0.13348878  0.40667042  1
  C  C79  1  0.15513819  0.15393766  0.32250797  1
  C  C80  1  0.20024544  0.25347897  0.30646658  1
  C  C81  1  0.21698333  0.31152841  0.22826421  1
  C  C82  1  0.23361110  0.34175957  0.56174384  1
  C  C83  1  0.25711749  0.35426128  0.64333591  1
  C  C84  1  0.27464998  0.69476453  0.78096964  1
  C  C85  1  0.26377638  0.71627421  0.69176283  1
  C  C86  1  0.16357178  0.70514239  0.65621250  1
  C  C87  1  0.15163830  0.72615426  0.57403485  1
  C  C88  1  0.23962631  0.75941531  0.52437536  1
  C  C89  1  0.22144842  0.78529689  0.43937344  1
  C  C90  1  0.13092369  0.83129933  0.40456702  1
  C  C91  1  0.15203102  0.84055271  0.31989429  1
  C  C92  1  0.25438316  0.79830315  0.30368618  1
  C  C93  1  0.31612145  0.78716816  0.22540186  1
  C  C94  1  0.34069414  0.76808667  0.55982243  1
  C  C95  1  0.35241799  0.74661862  0.64235513  1
  C  C96  1  0.72687550  0.19138636  0.22016321  1
  C  C97  1  0.73835138  0.21327916  0.30889838  1
  C  C98  1  0.83916692  0.20349084  0.34429805  1
  C  C99  1  0.85048115  0.22558514  0.42618955  1
  C  C100  1  0.76114361  0.25849080  0.47521777  1
  C  C101  1  0.77739599  0.28646447  0.55981238  1
  C  C102  1  0.86313398  0.33910040  0.59360535  1
  C  C103  1  0.84107384  0.34831497  0.67818558  1
  C  C104  1  0.74326922  0.29934159  0.69534317  1
  C  C105  1  0.68418641  0.28383534  0.77426775  1
  C  C106  1  0.65963367  0.26579406  0.43999922  1
  C  C107  1  0.64867487  0.24325581  0.35789815  1
  C  C108  1  0.81857852  0.72678450  0.21688437  1
  C  C109  1  0.79100013  0.73789829  0.30594074  1
  C  C110  1  0.79791959  0.83832776  0.34345802  1
  C  C111  1  0.77391186  0.84965421  0.42599142  1
  C  C112  1  0.74171366  0.76074591  0.47373103  1
  C  C113  1  0.71394664  0.77736979  0.55951351  1
  C  C114  1  0.66292586  0.86523611  0.59700911  1
  C  C115  1  0.65475968  0.84391426  0.68146375  1
  C  C116  1  0.70235923  0.74401703  0.69468903  1
  C  C117  1  0.71840453  0.68399100  0.77153325  1
  C  C118  1  0.73623652  0.65974435  0.43618277  1
  C  C119  1  0.76074810  0.64859164  0.35337639  1
  I  I120  1  0.23674455  0.02208535  0.03685086  1
  I  I121  1  0.25635363  0.42600199  0.00873997  1
  I  I122  1  0.73937501  0.94609817  0.97913340  1
  I  I123  1  0.75465844  0.55306536  0.98563733  1
  I  I124  1  0.94703539  0.24542467  0.98726213  1
  I  I125  1  0.04650825  0.74213192  0.01360560  1
  I  I126  1  0.56667784  0.24894026  0.00380174  1
  I  I127  1  0.43915130  0.74828909  0.99982487  1
  I  I128  1  0.02886111  0.97858737  0.79165331  1
  I  I129  1  0.96141060  1.00029574  0.17645455  1
  I  I130  1  0.03850414  0.48965022  0.81216513  1
  I  I131  1  0.96488729  0.46212833  0.19858529  1
  I  I132  1  0.44926872  0.99992369  0.81679741  1
  I  I133  1  0.49817408  0.01262687  0.20158831  1
  I  I134  1  0.49388930  0.50282434  0.81930696  1
  I  I135  1  0.53650947  0.51757641  0.20821835  1
  N  N136  1  0.21082308  0.25251815  0.83273639  1
  N  N137  1  0.26332019  0.23801499  0.16369608  1
  N  N138  1  0.23308900  0.29409055  0.37899038  1
  N  N139  1  0.24828431  0.79241950  0.83216052  1
  N  N140  1  0.24676333  0.74672486  0.15934039  1
  N  N141  1  0.29586322  0.76614618  0.37667578  1
  N  N142  1  0.74833460  0.28932913  0.16811682  1
  N  N143  1  0.75561257  0.23765712  0.83843253  1
  N  N144  1  0.70517371  0.26339121  0.62284560  1
  N  N145  1  0.72222690  0.74808375  0.16452119  1
  N  N146  1  0.76993636  0.75188360  0.83438562  1
  N  N147  1  0.73682497  0.70425768  0.62017049  1
