# generated using pymatgen
data_H18PbC13S(I2N)2
_symmetry_space_group_name_H-M   'P 1'
_cell_length_a   12.95521868
_cell_length_b   12.67638659
_cell_length_c   16.84493289
_cell_angle_alpha   91.25358022
_cell_angle_beta   91.10049064
_cell_angle_gamma   88.90911853
_symmetry_Int_Tables_number   1
_chemical_formula_structural   H18PbC13S(I2N)2
_chemical_formula_sum   'H72 Pb4 C52 S4 I16 N8'
_cell_volume   2764.71323162
_cell_formula_units_Z   4
loop_
 _symmetry_equiv_pos_site_id
 _symmetry_equiv_pos_as_xyz
  1  'x, y, z'
loop_
 _atom_site_type_symbol
 _atom_site_label
 _atom_site_symmetry_multiplicity
 _atom_site_fract_x
 _atom_site_fract_y
 _atom_site_fract_z
 _atom_site_occupancy
  H  H0  1  0.06499396  0.21452815  0.75462556  1
  H  H1  1  0.12258862  0.33248189  0.79109496  1
  H  H2  1  0.10203402  0.22638250  0.85602828  1
  H  H3  1  0.22853924  0.11334889  0.78449478  1
  H  H4  1  0.28520345  0.23370679  0.89043677  1
  H  H5  1  0.32719047  0.31956767  0.82324094  1
  H  H6  1  0.37757471  0.19622513  0.82837244  1
  H  H7  1  0.31003501  0.05789492  0.66779071  1
  H  H8  1  0.35341632  0.08602140  0.52738191  1
  H  H9  1  0.40830746  0.42442727  0.45959222  1
  H  H10  1  0.43620637  0.41800838  0.30416201  1
  H  H11  1  0.42728893  0.28124995  0.18598073  1
  H  H12  1  0.38334625  0.15284117  0.20521749  1
  H  H13  1  0.26608841  0.21485977  0.11524858  1
  H  H14  1  0.20361704  0.24329729  0.19909517  1
  H  H15  1  0.26209905  0.33936367  0.14996591  1
  H  H16  1  0.25565276  0.41212304  0.55184849  1
  H  H17  1  0.21194852  0.38420475  0.69109930  1
  H  H18  1  0.22434530  0.93886186  0.76159127  1
  H  H19  1  0.33671571  0.87341672  0.79935911  1
  H  H20  1  0.23146899  0.90296540  0.86257028  1
  H  H21  1  0.11951698  0.77961993  0.78684108  1
  H  H22  1  0.24064473  0.71758931  0.89215735  1
  H  H23  1  0.31567044  0.66186406  0.82193890  1
  H  H24  1  0.19242137  0.62474859  0.83043698  1
  H  H25  1  0.06838514  0.69175224  0.66786120  1
  H  H26  1  0.09780572  0.64842038  0.52657785  1
  H  H27  1  0.44431334  0.63417227  0.45093542  1
  H  H28  1  0.43721367  0.60799950  0.29523332  1
  H  H29  1  0.29117515  0.56720366  0.18660016  1
  H  H30  1  0.16042293  0.60167522  0.20941373  1
  H  H31  1  0.20794843  0.71010506  0.10851111  1
  H  H32  1  0.21324755  0.78883732  0.18817663  1
  H  H33  1  0.32279580  0.73984678  0.14823419  1
  H  H34  1  0.41310367  0.74904750  0.55480417  1
  H  H35  1  0.38451770  0.78876422  0.69577235  1
  H  H36  1  0.76615910  0.44039386  0.24192146  1
  H  H37  1  0.65959156  0.36859660  0.20258344  1
  H  H38  1  0.76429923  0.39875834  0.14105344  1
  H  H39  1  0.88326240  0.28350136  0.21731197  1
  H  H40  1  0.78007800  0.20808647  0.11098465  1
  H  H41  1  0.69177064  0.16428989  0.17565234  1
  H  H42  1  0.81469010  0.11968009  0.17905067  1
  H  H43  1  0.93798766  0.19318334  0.33228672  1
  H  H44  1  0.90968536  0.14634830  0.47208125  1
  H  H45  1  0.57271910  0.10153000  0.53889478  1
  H  H46  1  0.57534134  0.07158451  0.69324495  1
  H  H47  1  0.71157749  0.06462942  0.81095945  1
  H  H48  1  0.83972635  0.10541436  0.79323228  1
  H  H49  1  0.78078454  0.22300437  0.88717529  1
  H  H50  1  0.75913597  0.29169450  0.80516750  1
  H  H51  1  0.66061885  0.23398733  0.84986010  1
  H  H52  1  0.59039806  0.24584567  0.44763808  1
  H  H53  1  0.61807930  0.29011324  0.30887940  1
  H  H54  1  0.56402164  0.77971427  0.23693838  1
  H  H55  1  0.62699832  0.66364687  0.19967941  1
  H  H56  1  0.60177889  0.77173033  0.13649194  1
  H  H57  1  0.72082386  0.88475525  0.21430249  1
  H  H58  1  0.78683044  0.77005231  0.10875260  1
  H  H59  1  0.83539562  0.68364575  0.17577242  1
  H  H60  1  0.87504874  0.80922961  0.17558380  1
  H  H61  1  0.80430009  0.93842315  0.33199939  1
  H  H62  1  0.84867101  0.90925853  0.47332935  1
  H  H63  1  0.87812322  0.55827055  0.54609678  1
  H  H64  1  0.90192197  0.56307555  0.70194843  1
  H  H65  1  0.92138439  0.70727240  0.81574041  1
  H  H66  1  0.89249042  0.84095500  0.79286635  1
  H  H67  1  0.77194265  0.80414349  0.88437489  1
  H  H68  1  0.70338767  0.78061054  0.80124392  1
  H  H69  1  0.75387058  0.67957449  0.85400498  1
  H  H70  1  0.75240533  0.58614733  0.44645431  1
  H  H71  1  0.71114194  0.61453415  0.30544968  1
  Pb  Pb72  1  0.01368264  0.00340249  0.01091285  1
  Pb  Pb73  1  0.00058342  0.49369271  0.01013608  1
  Pb  Pb74  1  0.50903444  0.99361666  0.01260109  1
  Pb  Pb75  1  0.51143187  0.50432042  0.97480434  1
  C  C76  1  0.12387374  0.24647202  0.79562185  1
  C  C77  1  0.22811648  0.19869758  0.77444551  1
  C  C78  1  0.25833274  0.21856092  0.68973414  1
  C  C79  1  0.29768125  0.13564067  0.64227590  1
  C  C80  1  0.32192581  0.15135967  0.56319045  1
  C  C81  1  0.30825280  0.25129881  0.52957565  1
  C  C82  1  0.33568502  0.27185014  0.44738807  1
  C  C83  1  0.38354122  0.36036931  0.42005156  1
  C  C84  1  0.39847163  0.35723920  0.33714845  1
  C  C85  1  0.36138865  0.26694500  0.30032886  1
  C  C86  1  0.36646348  0.23726910  0.21458978  1
  C  C87  1  0.26878699  0.33456671  0.57743542  1
  C  C88  1  0.24402605  0.31833401  0.65617066  1
  C  C89  1  0.25244045  0.87783403  0.80217324  1
  C  C90  1  0.20331643  0.77433103  0.77787536  1
  C  C91  1  0.22396021  0.74247900  0.69242402  1
  C  C92  1  0.14447879  0.70345360  0.64327500  1
  C  C93  1  0.16102809  0.67955791  0.56331176  1
  C  C94  1  0.25817994  0.69485763  0.52999703  1
  C  C95  1  0.27974892  0.67238323  0.44637388  1
  C  C96  1  0.37495563  0.64607808  0.41446293  1
  C  C97  1  0.37147440  0.63176094  0.33125428  1
  C  C98  1  0.27367107  0.64635903  0.29867981  1
  C  C99  1  0.24088555  0.62735122  0.21467512  1
  C  C100  1  0.33794905  0.73393473  0.57980606  1
  C  C101  1  0.32128758  0.75682751  0.65955188  1
  C  C102  1  0.74359369  0.37598920  0.20112431  1
  C  C103  1  0.79980721  0.27563173  0.22570379  1
  C  C104  1  0.78072246  0.24536974  0.31053124  1
  C  C105  1  0.86182875  0.20534659  0.35784384  1
  C  C106  1  0.84601903  0.17922048  0.43654746  1
  C  C107  1  0.74801489  0.19266725  0.47004910  1
  C  C108  1  0.72694649  0.16466303  0.55183270  1
  C  C109  1  0.63675464  0.12218283  0.57865004  1
  C  C110  1  0.63812404  0.10585042  0.66113198  1
  C  C111  1  0.72895988  0.13600884  0.69855138  1
  C  C112  1  0.75757112  0.12577634  0.78396434  1
  C  C113  1  0.66656540  0.23277985  0.42231284  1
  C  C114  1  0.68275171  0.25836568  0.34379921  1
  C  C115  1  0.62457533  0.74996919  0.19715898  1
  C  C116  1  0.72600951  0.79910271  0.22280273  1
  C  C117  1  0.75608984  0.77860947  0.30830851  1
  C  C118  1  0.79359436  0.86082604  0.35704351  1
  C  C119  1  0.81795122  0.84453074  0.43679852  1
  C  C120  1  0.80467765  0.74509039  0.47007293  1
  C  C121  1  0.82906051  0.72319123  0.55323250  1
  C  C122  1  0.86131838  0.62715544  0.58371839  1
  C  C123  1  0.87378661  0.62933916  0.66708389  1
  C  C124  1  0.85216917  0.72721826  0.70113235  1
  C  C125  1  0.86496458  0.75972099  0.78591117  1
  C  C126  1  0.76612199  0.66287711  0.42100804  1
  C  C127  1  0.74258954  0.67935098  0.34142167  1
  S  S128  1  0.30959979  0.18445069  0.36936811  1
  S  S129  1  0.18580642  0.67847488  0.37205968  1
  S  S130  1  0.81399327  0.18356660  0.63000683  1
  S  S131  1  0.81623840  0.81691192  0.62888911  1
  I  I132  1  0.25030574  0.07846494  0.00938176  1
  I  I133  1  0.23671275  0.45181136  0.02027830  1
  I  I134  1  0.75171634  0.93499796  0.99711219  1
  I  I135  1  0.74736838  0.55687968  0.97308447  1
  I  I136  1  0.91642757  0.24839891  0.99961299  1
  I  I137  1  0.05675949  0.75219353  0.00761988  1
  I  I138  1  0.54358407  0.25736791  0.98383464  1
  I  I139  1  0.42240747  0.76129142  0.00154741  1
  I  I140  1  0.00836867  0.99900934  0.82702313  1
  I  I141  1  0.97785785  0.99167049  0.20278331  1
  I  I142  1  0.03516455  0.51856975  0.82528570  1
  I  I143  1  0.97226665  0.53006468  0.19796880  1
  I  I144  1  0.49464906  0.01160345  0.82678376  1
  I  I145  1  0.55212013  0.02952257  0.20010196  1
  I  I146  1  0.43760501  0.49120091  0.79003357  1
  I  I147  1  0.49314146  0.49731377  0.15669995  1
  N  N148  1  0.30967595  0.24084835  0.83265018  1
  N  N149  1  0.26797138  0.26130432  0.16784489  1
  N  N150  1  0.24148691  0.68959756  0.83405116  1
  N  N151  1  0.24748771  0.72305951  0.16246049  1
  N  N152  1  0.76845262  0.18647499  0.16921955  1
  N  N153  1  0.73754956  0.22526998  0.83397143  1
  N  N154  1  0.81100448  0.76160634  0.16725820  1
  N  N155  1  0.76691160  0.75515267  0.83336344  1
