# generated using pymatgen
data_H16PbC14S(I2N)2
_symmetry_space_group_name_H-M   'P 1'
_cell_length_a   12.35004542
_cell_length_b   12.30675204
_cell_length_c   16.78260892
_cell_angle_alpha   91.82744991
_cell_angle_beta   89.24796114
_cell_angle_gamma   90.71262951
_symmetry_Int_Tables_number   1
_chemical_formula_structural   H16PbC14S(I2N)2
_chemical_formula_sum   'H64 Pb4 C56 S4 I16 N8'
_cell_volume   2549.06976332
_cell_formula_units_Z   4
loop_
 _symmetry_equiv_pos_site_id
 _symmetry_equiv_pos_as_xyz
  1  'x, y, z'
loop_
 _atom_site_type_symbol
 _atom_site_label
 _atom_site_symmetry_multiplicity
 _atom_site_fract_x
 _atom_site_fract_y
 _atom_site_fract_z
 _atom_site_occupancy
  H  H0  1  0.18457413  0.25612009  0.82673300  1
  H  H1  1  0.24681118  0.17557387  0.89080172  1
  H  H2  1  0.17288343  0.12078949  0.81569548  1
  H  H3  1  0.36788987  0.10383897  0.79096849  1
  H  H4  1  0.37992224  0.24713216  0.80289544  1
  H  H5  1  0.29787014  0.01892169  0.66510176  1
  H  H6  1  0.26214113  0.03918626  0.52249054  1
  H  H7  1  0.27606467  0.48638473  0.59272963  1
  H  H8  1  0.24257017  0.51507783  0.44918882  1
  H  H9  1  0.20795239  0.41593148  0.30096081  1
  H  H10  1  0.15526108  0.29008850  0.18841771  1
  H  H11  1  0.11432601  0.15634576  0.21274979  1
  H  H12  1  0.31843810  0.22526473  0.13690854  1
  H  H13  1  0.32228918  0.11605217  0.19317048  1
  H  H14  1  0.23549302  0.12158887  0.11766367  1
  H  H15  1  0.30794254  0.36728409  0.70156365  1
  H  H16  1  0.24963287  0.80335670  0.83873750  1
  H  H17  1  0.14882295  0.74816824  0.88990976  1
  H  H18  1  0.12193739  0.82677791  0.81280568  1
  H  H19  1  0.09626763  0.62615477  0.78967566  1
  H  H20  1  0.23825534  0.61506721  0.80082576  1
  H  H21  1  0.01777522  0.69919790  0.66805233  1
  H  H22  1  0.04368362  0.73614331  0.52575845  1
  H  H23  1  0.48695812  0.72328258  0.58970210  1
  H  H24  1  0.52104888  0.75641781  0.44599884  1
  H  H25  1  0.42831541  0.78309164  0.29897526  1
  H  H26  1  0.30988620  0.83049734  0.18731206  1
  H  H27  1  0.18123383  0.88058400  0.21677494  1
  H  H28  1  0.22890274  0.67262351  0.13442754  1
  H  H29  1  0.12136601  0.67517468  0.19576810  1
  H  H30  1  0.13279440  0.76350570  0.12298671  1
  H  H31  1  0.36363051  0.68828974  0.69923671  1
  H  H32  1  0.74246818  0.32404191  0.17734679  1
  H  H33  1  0.82995894  0.27043013  0.11175964  1
  H  H34  1  0.87506004  0.34375289  0.18995219  1
  H  H35  1  0.89750756  0.14423162  0.20140103  1
  H  H36  1  0.75479520  0.13061332  0.19475560  1
  H  H37  1  0.98178489  0.21014587  0.32956915  1
  H  H38  1  0.95942917  0.24216642  0.47421614  1
  H  H39  1  0.51454939  0.22084340  0.41556017  1
  H  H40  1  0.48476081  0.25967390  0.56064635  1
  H  H41  1  0.58186048  0.30624279  0.70548008  1
  H  H42  1  0.70484194  0.36232195  0.81550674  1
  H  H43  1  0.84205110  0.39759514  0.79235067  1
  H  H44  1  0.75969135  0.17720996  0.83133708  1
  H  H45  1  0.89068709  0.20871167  0.80911275  1
  H  H46  1  0.83018977  0.26565047  0.89056816  1
  H  H47  1  0.63495636  0.19436489  0.30230261  1
  H  H48  1  0.66282476  0.72834523  0.17832124  1
  H  H49  1  0.71359778  0.81749976  0.11372104  1
  H  H50  1  0.64528954  0.86380819  0.19271814  1
  H  H51  1  0.84139610  0.89245878  0.20468683  1
  H  H52  1  0.85804184  0.74996056  0.19382607  1
  H  H53  1  0.78398804  0.97724925  0.33438499  1
  H  H54  1  0.75815533  0.95850005  0.47867143  1
  H  H55  1  0.77763042  0.51083168  0.41221211  1
  H  H56  1  0.74203800  0.48327233  0.55641430  1
  H  H57  1  0.69590119  0.58285229  0.70287811  1
  H  H58  1  0.63405365  0.70899262  0.81401879  1
  H  H59  1  0.59754020  0.84311850  0.78918334  1
  H  H60  1  0.80911483  0.77602638  0.85261972  1
  H  H61  1  0.79156626  0.89606737  0.81087625  1
  H  H62  1  0.71750555  0.86088570  0.89078430  1
  H  H63  1  0.79906723  0.62885003  0.30091678  1
  Pb  Pb64  1  0.01282228  -0.00457343  0.97180470  1
  Pb  Pb65  1  0.01893373  0.48777374  0.99199373  1
  Pb  Pb66  1  0.51867931  0.03788517  0.99795719  1
  Pb  Pb67  1  0.51906588  0.51560466  0.99698775  1
  C  C68  1  0.32761972  0.18067672  0.78003765  1
  C  C69  1  0.30360407  0.19262563  0.69318842  1
  C  C70  1  0.29056816  0.10015347  0.64150746  1
  C  C71  1  0.27053297  0.11155556  0.56139860  1
  C  C72  1  0.26197906  0.21608161  0.52900086  1
  C  C73  1  0.27405551  0.31037484  0.58118204  1
  C  C74  1  0.26647222  0.41728945  0.55103694  1
  C  C75  1  0.24813731  0.43339428  0.47200844  1
  C  C76  1  0.23687013  0.34222529  0.41845161  1
  C  C77  1  0.21882343  0.34276356  0.33473335  1
  C  C78  1  0.21219387  0.24062054  0.30031344  1
  C  C79  1  0.18141494  0.21574485  0.21650172  1
  C  C80  1  0.24347494  0.23578697  0.44696781  1
  C  C81  1  0.29560306  0.29545374  0.66262496  1
  C  C82  1  0.17408529  0.66721856  0.77919561  1
  C  C83  1  0.18992060  0.69329050  0.69320968  1
  C  C84  1  0.09963386  0.70684670  0.64332519  1
  C  C85  1  0.11428033  0.72746428  0.56346009  1
  C  C86  1  0.21986992  0.73601275  0.52977394  1
  C  C87  1  0.31190821  0.72444156  0.58043550  1
  C  C88  1  0.41971778  0.73256376  0.54908825  1
  C  C89  1  0.43879655  0.75036907  0.46995059  1
  C  C90  1  0.34998081  0.75981515  0.41777082  1
  C  C91  1  0.35410251  0.77431870  0.33392307  1
  C  C92  1  0.25387059  0.77883229  0.30066225  1
  C  C93  1  0.23367436  0.80915431  0.21756378  1
  C  C94  1  0.24268364  0.75350910  0.44759424  1
  C  C95  1  0.29370818  0.70223448  0.66167452  1
  C  C96  1  0.82053591  0.18291444  0.21799274  1
  C  C97  1  0.80880708  0.20295875  0.30611711  1
  C  C98  1  0.90050891  0.21550208  0.35558037  1
  C  C99  1  0.88795303  0.23319512  0.43684652  1
  C  C100  1  0.78330618  0.23998096  0.47228458  1
  C  C101  1  0.68987561  0.22629598  0.42247361  1
  C  C102  1  0.58289061  0.23243001  0.45560818  1
  C  C103  1  0.56620370  0.25359722  0.53537681  1
  C  C104  1  0.65654855  0.26890247  0.58627231  1
  C  C105  1  0.65503391  0.29414942  0.66963040  1
  C  C106  1  0.75653870  0.30500948  0.70096039  1
  C  C107  1  0.77937985  0.33410434  0.78562706  1
  C  C108  1  0.76303117  0.26091577  0.55511436  1
  C  C109  1  0.70592591  0.20735482  0.33983833  1
  C  C110  1  0.80513265  0.81371938  0.21910300  1
  C  C111  1  0.79023809  0.80308540  0.30750720  1
  C  C112  1  0.77991780  0.89619146  0.35893724  1
  C  C113  1  0.76572565  0.88565206  0.44019991  1
  C  C114  1  0.76041504  0.78152867  0.47405377  1
  C  C115  1  0.77304194  0.68685675  0.42239513  1
  C  C116  1  0.76761821  0.58019255  0.45362015  1
  C  C117  1  0.74825662  0.56470780  0.53300412  1
  C  C118  1  0.73417160  0.65623220  0.58578652  1
  C  C119  1  0.70977855  0.65601811  0.66905653  1
  C  C120  1  0.69801478  0.75841957  0.70225016  1
  C  C121  1  0.66284267  0.78338965  0.78571565  1
  C  C122  1  0.74094169  0.76253200  0.55655542  1
  C  C123  1  0.78852748  0.70092156  0.33978469  1
  S  S124  1  0.22678753  0.13945729  0.36995674  1
  S  S125  1  0.14984245  0.76700060  0.37166504  1
  S  S126  1  0.85823256  0.28500318  0.62900676  1
  S  S127  1  0.71650111  0.85915424  0.63215283  1
  I  I128  1  0.26924368  0.95426046  0.97312947  1
  I  I129  1  0.25953174  0.58315861  0.99679881  1
  I  I130  1  0.76952501  0.03802524  0.02526868  1
  I  I131  1  0.76076619  0.41485262  0.99433751  1
  I  I132  1  0.05386832  0.24048868  0.02297604  1
  I  I133  1  0.94394715  0.73661609  0.96938947  1
  I  I134  1  0.40853632  0.27430846  1.00116479  1
  I  I135  1  0.55619596  0.77635234  0.99067487  1
  I  I136  1  0.00268888  0.99503930  0.77432110  1
  I  I137  1  0.03076462  0.97273730  0.15394018  1
  I  I138  1  0.06162655  0.40427480  0.80965078  1
  I  I139  1  0.99804260  0.50864092  0.19145333  1
  I  I140  1  0.59284375  0.06787573  0.81638995  1
  I  I141  1  0.50388243  0.01817166  0.19649556  1
  I  I142  1  0.49022841  0.50500486  0.80758699  1
  I  I143  1  0.55584007  0.54292273  0.18829080  1
  N  N144  1  0.22687723  0.18301300  0.83152727  1
  N  N145  1  0.26972588  0.16707769  0.16407659  1
  N  N146  1  0.17414553  0.76770851  0.83285692  1
  N  N147  1  0.17660438  0.72484743  0.16584156  1
  N  N148  1  0.81637029  0.28609028  0.17211975  1
  N  N149  1  0.81872077  0.23933625  0.83171038  1
  N  N150  1  0.70068723  0.80475366  0.17382228  1
  N  N151  1  0.75142037  0.83199795  0.83729354  1
