# generated using pymatgen
data_H16PbC12(I2N)2
_symmetry_space_group_name_H-M   'P 1'
_cell_length_a   12.75408797
_cell_length_b   12.67758841
_cell_length_c   13.94140993
_cell_angle_alpha   88.00415928
_cell_angle_beta   89.76127239
_cell_angle_gamma   90.79483433
_symmetry_Int_Tables_number   1
_chemical_formula_structural   H16PbC12(I2N)2
_chemical_formula_sum   'H64 Pb4 C48 I16 N8'
_cell_volume   2252.59294921
_cell_formula_units_Z   4
loop_
 _symmetry_equiv_pos_site_id
 _symmetry_equiv_pos_as_xyz
  1  'x, y, z'
loop_
 _atom_site_type_symbol
 _atom_site_label
 _atom_site_symmetry_multiplicity
 _atom_site_fract_x
 _atom_site_fract_y
 _atom_site_fract_z
 _atom_site_occupancy
  H  H0  1  0.23483097  0.36053475  0.86268462  1
  H  H1  1  0.18080027  0.26233326  0.80318500  1
  H  H2  1  0.15277411  0.38897821  0.77366063  1
  H  H3  1  0.33595292  0.42471785  0.73137177  1
  H  H4  1  0.36384079  0.29048163  0.75724469  1
  H  H5  1  0.26490787  0.48328448  0.57691699  1
  H  H6  1  0.22759375  0.44392199  0.41041205  1
  H  H7  1  0.11009616  0.29178131  0.21756639  1
  H  H8  1  0.14717225  0.39622653  0.29158685  1
  H  H9  1  0.28612472  0.29191791  0.15235490  1
  H  H10  1  0.23223839  0.41102651  0.14283546  1
  H  H11  1  0.32504662  0.38678550  0.22513789  1
  H  H12  1  0.17261238  0.11542701  0.24398426  1
  H  H13  1  0.21192968  0.97489384  0.36507500  1
  H  H14  1  0.26386303  0.02061953  0.53033686  1
  H  H15  1  0.29446261  0.15138085  0.64978043  1
  H  H16  1  0.36130481  0.76414110  0.86404797  1
  H  H17  1  0.25753563  0.80624905  0.80210775  1
  H  H18  1  0.37783697  0.85050301  0.77205843  1
  H  H19  1  0.42892073  0.66583982  0.74058257  1
  H  H20  1  0.29659257  0.62822801  0.76197390  1
  H  H21  1  0.48581863  0.72865228  0.58164530  1
  H  H22  1  0.44517815  0.76505244  0.41287007  1
  H  H23  1  0.29975670  0.88320395  0.21457251  1
  H  H24  1  0.40257731  0.83596019  0.28797152  1
  H  H25  1  0.27306362  0.70478654  0.15933603  1
  H  H26  1  0.39299400  0.75476347  0.13619012  1
  H  H27  1  0.37581479  0.66237221  0.22395550  1
  H  H28  1  0.11904303  0.82804689  0.24104680  1
  H  H29  1  0.98003513  0.79549015  0.36159864  1
  H  H30  1  0.02548948  0.73924701  0.52937795  1
  H  H31  1  0.15604834  0.70456006  0.65084910  1
  H  H32  1  0.63347580  0.24267697  0.13508975  1
  H  H33  1  0.73764972  0.28929341  0.19152748  1
  H  H34  1  0.61776930  0.32858374  0.22265796  1
  H  H35  1  0.57061071  0.14316978  0.26863421  1
  H  H36  1  0.70415088  0.11187539  0.24792382  1
  H  H37  1  0.51596640  0.21894102  0.41954404  1
  H  H38  1  0.55849805  0.26106667  0.58419312  1
  H  H39  1  0.71309054  0.37396090  0.77696632  1
  H  H40  1  0.60971269  0.34210636  0.69982680  1
  H  H41  1  0.70600633  0.19149382  0.84393787  1
  H  H42  1  0.59502015  0.25737889  0.85247364  1
  H  H43  1  0.60437428  0.16373706  0.77229503  1
  H  H44  1  0.88663377  0.30985651  0.75562699  1
  H  H45  1  0.02562512  0.27625842  0.63588666  1
  H  H46  1  0.97724393  0.22983336  0.46983751  1
  H  H47  1  0.84443050  0.19134143  0.35067221  1
  H  H48  1  0.74671024  0.65517686  0.13368252  1
  H  H49  1  0.69331568  0.74647208  0.20326253  1
  H  H50  1  0.66173243  0.61821885  0.22194423  1
  H  H51  1  0.84110423  0.57478183  0.26432010  1
  H  H52  1  0.87670942  0.70856561  0.24156871  1
  H  H53  1  0.77624669  0.51535459  0.42094992  1
  H  H54  1  0.73939221  0.55258428  0.58775345  1
  H  H55  1  0.62917444  0.69374416  0.78463466  1
  H  H56  1  0.67208901  0.59365161  0.70999010  1
  H  H57  1  0.80677815  0.71341781  0.84515757  1
  H  H58  1  0.75956707  0.59194955  0.86020781  1
  H  H59  1  0.85009363  0.61844409  0.77480759  1
  H  H60  1  0.68952995  0.87713069  0.75919858  1
  H  H61  1  0.72141386  0.02087404  0.63725541  1
  H  H62  1  0.76430063  0.97785592  0.46875378  1
  H  H63  1  0.79529708  0.84873550  0.34766264  1
  Pb  Pb64  1  0.01081020  0.98414421  0.00137188  1
  Pb  Pb65  1  0.02301035  0.52243203  0.99206973  1
  Pb  Pb66  1  0.52159960  0.98728847  0.00352497  1
  Pb  Pb67  1  0.50943783  0.49061664  0.03352641  1
  C  C68  1  0.30492648  0.34415462  0.72683935  1
  C  C69  1  0.27916846  0.31892084  0.62533307  1
  C  C70  1  0.26125473  0.40114620  0.55581450  1
  C  C71  1  0.24014256  0.37844366  0.46172568  1
  C  C72  1  0.23433734  0.27224783  0.43178213  1
  C  C73  1  0.20651904  0.24271233  0.33682384  1
  C  C74  1  0.17383064  0.32257259  0.26177717  1
  C  C75  1  0.19985345  0.13717466  0.31489043  1
  C  C76  1  0.22148893  0.05685652  0.38398972  1
  C  C77  1  0.24900967  0.08226707  0.47569960  1
  C  C78  1  0.25479340  0.18928538  0.50201831  1
  C  C79  1  0.27759554  0.21528127  0.59771241  1
  C  C80  1  0.34775611  0.69124597  0.73140693  1
  C  C81  1  0.32283881  0.71597277  0.62817510  1
  C  C82  1  0.40399973  0.73244836  0.55921231  1
  C  C83  1  0.38068205  0.75305487  0.46386315  1
  C  C84  1  0.27504284  0.76050159  0.43237159  1
  C  C85  1  0.24553471  0.78860948  0.33602426  1
  C  C86  1  0.32524895  0.81593546  0.25992300  1
  C  C87  1  0.14079219  0.80074302  0.31327539  1
  C  C88  1  0.06103970  0.78276886  0.38225604  1
  C  C89  1  0.08632175  0.75311272  0.47493907  1
  C  C90  1  0.19285190  0.74330739  0.50240349  1
  C  C91  1  0.21945953  0.72005381  0.59910946  1
  C  C92  1  0.65144796  0.17274477  0.27361021  1
  C  C93  1  0.67824424  0.20395249  0.37353904  1
  C  C94  1  0.59803450  0.22401909  0.44104533  1
  C  C95  1  0.62261528  0.24818551  0.53408268  1
  C  C96  1  0.72869935  0.25508777  0.56468699  1
  C  C97  1  0.75969380  0.28042633  0.65981586  1
  C  C98  1  0.68112507  0.31136718  0.73287859  1
  C  C99  1  0.86470243  0.28732586  0.68343317  1
  C  C100  1  0.94372580  0.26901453  0.61537091  1
  C  C101  1  0.91686564  0.24405666  0.52331859  1
  C  C102  1  0.81002441  0.23653633  0.49579059  1
  C  C103  1  0.78211467  0.21024926  0.40123590  1
  C  C104  1  0.81428667  0.65603373  0.27054588  1
  C  C105  1  0.78676429  0.68014981  0.37240036  1
  C  C106  1  0.77065655  0.59728078  0.44200518  1
  C  C107  1  0.74959490  0.61883472  0.53640249  1
  C  C108  1  0.74222727  0.72449172  0.56669255  1
  C  C109  1  0.71869121  0.75224317  0.66305837  1
  C  C110  1  0.69439715  0.66948525  0.73926572  1
  C  C111  1  0.71111330  0.85722067  0.68613994  1
  C  C112  1  0.72817261  0.93915829  0.61667690  1
  C  C113  1  0.75134385  0.91529238  0.52340084  1
  C  C114  1  0.75808747  0.80863920  0.49607722  1
  C  C115  1  0.78072269  0.78375478  0.39993705  1
  I  I116  1  0.25700889  0.92688100  0.01440257  1
  I  I117  1  0.26691403  0.55827521  0.97296009  1
  I  I118  1  0.74758543  0.08462548  0.99070961  1
  I  I119  1  0.75577334  0.45235304  0.02841494  1
  I  I120  1  0.05762349  0.27967954  1.00193744  1
  I  I121  1  0.89837232  0.76179315  0.00378649  1
  I  I122  1  0.44413893  0.24302783  0.03258375  1
  I  I123  1  0.54722513  0.74339304  0.96990653  1
  I  I124  1  0.02803150  0.01365395  0.77965702  1
  I  I125  1  0.94291996  0.01648221  0.22456855  1
  I  I126  1  0.02505556  0.53522967  0.74901501  1
  I  I127  1  0.07677144  0.57279670  0.20158962  1
  I  I128  1  0.47082180  0.02367221  0.76631610  1
  I  I129  1  0.58768137  0.90662324  0.21369505  1
  I  I130  1  0.51586081  0.47858112  0.82127286  1
  I  I131  1  0.49640909  0.49362218  0.27866047  1
  N  N132  1  0.21280377  0.33733649  0.79503054  1
  N  N133  1  0.25994862  0.35437196  0.19165353  1
  N  N134  1  0.33436959  0.78352127  0.79555900  1
  N  N135  1  0.34262232  0.72839580  0.19072892  1
  N  N136  1  0.66114852  0.26427736  0.20171344  1
  N  N137  1  0.64582304  0.22589471  0.80313412  1
  N  N138  1  0.72315867  0.66955213  0.20318371  1
  N  N139  1  0.78288925  0.64754952  0.80769032  1
