# generated using pymatgen
data_H18PbC13(I2N)2
_symmetry_space_group_name_H-M   'P 1'
_cell_length_a   12.87543902
_cell_length_b   12.74555415
_cell_length_c   15.15658211
_cell_angle_alpha   90.20371639
_cell_angle_beta   90.86107795
_cell_angle_gamma   89.34976651
_symmetry_Int_Tables_number   1
_chemical_formula_structural   H18PbC13(I2N)2
_chemical_formula_sum   'H72 Pb4 C52 I16 N8'
_cell_volume   2486.80963921
_cell_formula_units_Z   4
loop_
 _symmetry_equiv_pos_site_id
 _symmetry_equiv_pos_as_xyz
  1  'x, y, z'
loop_
 _atom_site_type_symbol
 _atom_site_label
 _atom_site_symmetry_multiplicity
 _atom_site_fract_x
 _atom_site_fract_y
 _atom_site_fract_z
 _atom_site_occupancy
  H  H0  1  0.14135371  0.24509611  0.87080513  1
  H  H1  1  0.16183242  0.29983627  0.77260674  1
  H  H2  1  0.22764503  0.34014530  0.86218639  1
  H  H3  1  0.24362014  0.12451751  0.78596110  1
  H  H4  1  0.31986413  0.17583690  0.87450187  1
  H  H5  1  0.42260166  0.17941136  0.74216620  1
  H  H6  1  0.39536619  0.30996354  0.77449407  1
  H  H7  1  0.32220083  0.42943953  0.67105458  1
  H  H8  1  0.25117900  0.46792258  0.52186282  1
  H  H9  1  0.18694231  0.40358194  0.37567547  1
  H  H10  1  0.07937972  0.20017434  0.22909597  1
  H  H11  1  0.09678864  0.33800928  0.24514479  1
  H  H12  1  0.25523755  0.18845990  0.17562896  1
  H  H13  1  0.27099529  0.31780180  0.18945509  1
  H  H14  1  0.18136831  0.27327180  0.11814355  1
  H  H15  1  0.16769898  0.07096777  0.32632231  1
  H  H16  1  0.23448060  0.03317131  0.47712397  1
  H  H17  1  0.30216581  0.09723946  0.62102528  1
  H  H18  1  0.24503229  0.85556861  0.87837481  1
  H  H19  1  0.29783127  0.84244511  0.77952080  1
  H  H20  1  0.33991113  0.76867722  0.86240538  1
  H  H21  1  0.12565305  0.75953520  0.78509385  1
  H  H22  1  0.17470976  0.67949872  0.87234551  1
  H  H23  1  0.18059378  0.57718581  0.73883205  1
  H  H24  1  0.30945473  0.60256639  0.77300529  1
  H  H25  1  0.42762200  0.67577040  0.67206063  1
  H  H26  1  0.46526998  0.74712113  0.52420235  1
  H  H27  1  0.40130974  0.81199413  0.37812263  1
  H  H28  1  0.19859171  0.92041313  0.22948049  1
  H  H29  1  0.33548822  0.90313198  0.24779069  1
  H  H30  1  0.19043307  0.74350478  0.17420380  1
  H  H31  1  0.31838434  0.72473693  0.19284673  1
  H  H32  1  0.27491086  0.81637285  0.12038846  1
  H  H33  1  0.07206949  0.83274542  0.32473209  1
  H  H34  1  0.03500465  0.76639006  0.47445037  1
  H  H35  1  0.09885524  0.69882925  0.61844326  1
  H  H36  1  0.75800087  0.36274260  0.12957178  1
  H  H37  1  0.69919424  0.34054886  0.22484095  1
  H  H38  1  0.66316968  0.27550884  0.13344670  1
  H  H39  1  0.87475416  0.25789341  0.21502630  1
  H  H40  1  0.82439388  0.18105389  0.12661778  1
  H  H41  1  0.82016152  0.07729568  0.25886724  1
  H  H42  1  0.69105335  0.10441798  0.22540081  1
  H  H43  1  0.57228160  0.17706462  0.32746180  1
  H  H44  1  0.53413953  0.24788571  0.47629259  1
  H  H45  1  0.59731124  0.31227310  0.62238248  1
  H  H46  1  0.79798779  0.41966537  0.77101003  1
  H  H47  1  0.66156838  0.40149703  0.75374176  1
  H  H48  1  0.80993804  0.24127750  0.82548594  1
  H  H49  1  0.68305543  0.22372906  0.80887519  1
  H  H50  1  0.72343011  0.31353330  0.88125049  1
  H  H51  1  0.92672991  0.32890316  0.67595733  1
  H  H52  1  0.96406422  0.26396735  0.52528638  1
  H  H53  1  0.90106870  0.19800716  0.38086514  1
  H  H54  1  0.64365700  0.75565869  0.12296601  1
  H  H55  1  0.66136944  0.69857253  0.22049514  1
  H  H56  1  0.73255235  0.66073144  0.13548940  1
  H  H57  1  0.73796230  0.87556512  0.21310291  1
  H  H58  1  0.81907095  0.82709799  0.12759658  1
  H  H59  1  0.91837960  0.82495966  0.26233181  1
  H  H60  1  0.89764627  0.69389304  0.23008989  1
  H  H61  1  0.82082416  0.57271245  0.32919455  1
  H  H62  1  0.75189367  0.53343530  0.47692191  1
  H  H63  1  0.68947639  0.59638528  0.62238212  1
  H  H64  1  0.58055151  0.79645001  0.76913281  1
  H  H65  1  0.60332824  0.65932741  0.75294160  1
  H  H66  1  0.75368156  0.81264939  0.82875200  1
  H  H67  1  0.78027217  0.68490043  0.80976082  1
  H  H68  1  0.68733335  0.72135988  0.88068441  1
  H  H69  1  0.66984570  0.92872702  0.67562741  1
  H  H70  1  0.73383046  0.96732314  0.52581852  1
  H  H71  1  0.80027960  0.90449482  0.38258580  1
  Pb  Pb72  1  0.99402732  -0.00095318  0.98069764  1
  Pb  Pb73  1  0.99535864  0.51088500  0.00179566  1
  Pb  Pb74  1  0.50186427  0.00257383  0.00002104  1
  Pb  Pb75  1  0.48914802  0.50042304  0.01491894  1
  C  C76  1  0.28244129  0.19508730  0.81102976  1
  C  C77  1  0.36022640  0.23876233  0.74659850  1
  C  C78  1  0.31572907  0.26036449  0.65593871  1
  C  C79  1  0.30035679  0.36534449  0.62683548  1
  C  C80  1  0.26181358  0.38677493  0.54339216  1
  C  C81  1  0.23707112  0.30389967  0.48426563  1
  C  C82  1  0.19950452  0.32259335  0.39725551  1
  C  C83  1  0.17735064  0.24009363  0.34070763  1
  C  C84  1  0.13477468  0.26070087  0.25001977  1
  C  C85  1  0.19008090  0.13493483  0.37038444  1
  C  C86  1  0.22595860  0.11409539  0.45453961  1
  C  C87  1  0.25123918  0.19733021  0.51334682  1
  C  C88  1  0.29039688  0.17838778  0.59962499  1
  C  C89  1  0.19499035  0.71810090  0.81050035  1
  C  C90  1  0.23883681  0.63940398  0.74483005  1
  C  C91  1  0.26032159  0.68389824  0.65509049  1
  C  C92  1  0.36408675  0.69826326  0.62733362  1
  C  C93  1  0.38508905  0.73690033  0.54473618  1
  C  C94  1  0.30294216  0.76265652  0.48500847  1
  C  C95  1  0.32128307  0.80034692  0.39880338  1
  C  C96  1  0.23949145  0.82330576  0.34159723  1
  C  C97  1  0.25964102  0.86504704  0.25140541  1
  C  C98  1  0.13550010  0.81088965  0.36968345  1
  C  C99  1  0.11504610  0.77498630  0.45305368  1
  C  C100  1  0.19755981  0.74923751  0.51263146  1
  C  C101  1  0.17907793  0.71003113  0.59813432  1
  C  C102  1  0.80487268  0.21905551  0.18936680  1
  C  C103  1  0.76127364  0.14034668  0.25381933  1
  C  C104  1  0.73962340  0.18452052  0.34407180  1
  C  C105  1  0.63562204  0.19926771  0.37216671  1
  C  C106  1  0.61438147  0.23752796  0.45525801  1
  C  C107  1  0.69624508  0.26246374  0.51511812  1
  C  C108  1  0.67756176  0.29975494  0.60176494  1
  C  C109  1  0.75913053  0.32141811  0.65930215  1
  C  C110  1  0.73832055  0.36360791  0.74965814  1
  C  C111  1  0.86329299  0.30803187  0.63093181  1
  C  C112  1  0.88395450  0.27299579  0.54706024  1
  C  C113  1  0.80177557  0.24852296  0.48716089  1
  C  C114  1  0.82060109  0.20983480  0.40117151  1
  C  C115  1  0.78063792  0.80638621  0.18915779  1
  C  C116  1  0.85871636  0.76417175  0.25663466  1
  C  C117  1  0.81426375  0.74174028  0.34595882  1
  C  C118  1  0.79929081  0.63661705  0.37361591  1
  C  C119  1  0.76180448  0.61465569  0.45617034  1
  C  C120  1  0.73725930  0.69694456  0.51573415  1
  C  C121  1  0.70091731  0.67757989  0.60190939  1
  C  C122  1  0.67902828  0.75938922  0.65914523  1
  C  C123  1  0.63838413  0.73721960  0.74905044  1
  C  C124  1  0.69096692  0.86489468  0.63099496  1
  C  C125  1  0.72558181  0.88629125  0.54755634  1
  C  C126  1  0.75049072  0.80368664  0.48808370  1
  C  C127  1  0.78895290  0.82316881  0.40274288  1
  I  I128  1  0.25624336  0.98763342  0.01728147  1
  I  I129  1  0.24766693  0.46918848  0.00494651  1
  I  I130  1  0.75122339  0.98098166  0.95890270  1
  I  I131  1  0.74682079  0.50304584  0.99477435  1
  I  I132  1  0.01217100  0.24915504  -0.00101685  1
  I  I133  1  0.02747673  0.75067417  0.02508350  1
  I  I134  1  0.53476224  0.25026480  0.00201921  1
  I  I135  1  0.50768052  0.74782745  0.98685644  1
  I  I136  1  0.02890417  0.00825629  0.77701311  1
  I  I137  1  0.00554386  0.00664927  0.19325134  1
  I  I138  1  0.98531586  0.51209946  0.79080138  1
  I  I139  1  0.97866315  0.49592130  0.20825435  1
  I  I140  1  0.47483395  0.97998394  0.78824981  1
  I  I141  1  0.52271025  0.97184686  0.20636408  1
  I  I142  1  0.49101023  0.49538299  0.80670553  1
  I  I143  1  0.51156667  0.51918120  0.22536222  1
  N  N144  1  0.19837258  0.27459647  0.82969925  1
  N  N145  1  0.21705522  0.25978168  0.17922193  1
  N  N146  1  0.27332131  0.80063792  0.83359146  1
  N  N147  1  0.26122248  0.78036001  0.18070576  1
  N  N148  1  0.72694765  0.30454880  0.16874472  1
  N  N149  1  0.73905696  0.27935875  0.82053418  1
  N  N150  1  0.70011366  0.72582400  0.16601733  1
  N  N151  1  0.72157931  0.73897523  0.82104294  1
