# generated using pymatgen
data_H16PbC14S(I2N)2
_symmetry_space_group_name_H-M   'P 1'
_cell_length_a   12.23556644
_cell_length_b   12.31978914
_cell_length_c   17.32792525
_cell_angle_alpha   89.28587641
_cell_angle_beta   88.09174452
_cell_angle_gamma   90.15277860
_symmetry_Int_Tables_number   1
_chemical_formula_structural   H16PbC14S(I2N)2
_chemical_formula_sum   'H64 Pb4 C56 S4 I16 N8'
_cell_volume   2610.34077618
_cell_formula_units_Z   4
loop_
 _symmetry_equiv_pos_site_id
 _symmetry_equiv_pos_as_xyz
  1  'x, y, z'
loop_
 _atom_site_type_symbol
 _atom_site_label
 _atom_site_symmetry_multiplicity
 _atom_site_fract_x
 _atom_site_fract_y
 _atom_site_fract_z
 _atom_site_occupancy
  H  H0  1  0.35837143  0.15351427  0.81701504  1
  H  H1  1  0.27931177  0.17880132  0.89393041  1
  H  H2  1  0.32260824  0.28164521  0.83668682  1
  H  H3  1  0.12679194  0.22944303  0.82200987  1
  H  H4  1  0.17391114  0.10036617  0.79268190  1
  H  H5  1  0.19466297  0.39733654  0.74510394  1
  H  H6  1  0.21860742  0.47370572  0.61335963  1
  H  H7  1  0.25265236  0.44783187  0.47366407  1
  H  H8  1  0.29789904  0.39932072  0.31730626  1
  H  H9  1  0.35225234  0.31345013  0.19242750  1
  H  H10  1  0.40987381  0.18168458  0.20007671  1
  H  H11  1  0.28329561  0.18967405  0.10337984  1
  H  H12  1  0.23956903  0.10065609  0.17185217  1
  H  H13  1  0.17758281  0.22204442  0.16270836  1
  H  H14  1  0.24616873  0.04295953  0.51630862  1
  H  H15  1  0.21686491  0.07191708  0.65698519  1
  H  H16  1  0.13743321  0.65748723  0.81946378  1
  H  H17  1  0.15912218  0.73970097  0.89325713  1
  H  H18  1  0.26472768  0.69266268  0.84210308  1
  H  H19  1  0.22602826  0.88386120  0.81502049  1
  H  H20  1  0.09423292  0.84495942  0.78649232  1
  H  H21  1  0.39412284  0.81349849  0.74137359  1
  H  H22  1  0.47377756  0.78166631  0.61082935  1
  H  H23  1  0.44997984  0.74495895  0.47233175  1
  H  H24  1  0.40355013  0.70227415  0.31767011  1
  H  H25  1  0.31802844  0.65186351  0.19366074  1
  H  H26  1  0.18288342  0.59795154  0.20118704  1
  H  H27  1  0.19519473  0.73353847  0.10665631  1
  H  H28  1  0.11275081  0.78038858  0.17842877  1
  H  H29  1  0.24354070  0.82773545  0.16734251  1
  H  H30  1  0.04134561  0.75483217  0.51676497  1
  H  H31  1  0.06812566  0.78923313  0.65511680  1
  H  H32  1  0.85424339  0.16375425  0.18065945  1
  H  H33  1  0.85055432  0.25098832  0.10596418  1
  H  H34  1  0.73476057  0.21050611  0.14893445  1
  H  H35  1  0.77833916  0.39402400  0.18433564  1
  H  H36  1  0.90876256  0.34988529  0.21308371  1
  H  H37  1  0.60751367  0.31950832  0.25579841  1
  H  H38  1  0.52602766  0.28151416  0.38558250  1
  H  H39  1  0.54715997  0.24609132  0.52452333  1
  H  H40  1  0.58821289  0.21994462  0.68102338  1
  H  H41  1  0.66547279  0.18537315  0.80914422  1
  H  H42  1  0.79472698  0.11975960  0.80489749  1
  H  H43  1  0.81845622  0.25003381  0.89252394  1
  H  H44  1  0.87224059  0.31593168  0.81571859  1
  H  H45  1  0.74689623  0.34479926  0.84891838  1
  H  H46  1  0.95643161  0.25451619  0.48421414  1
  H  H47  1  0.93196761  0.28915555  0.34401589  1
  H  H48  1  0.83444477  0.85978512  0.17450238  1
  H  H49  1  0.75323479  0.82322426  0.10237154  1
  H  H50  1  0.80775930  0.72859420  0.16010606  1
  H  H51  1  0.60857931  0.76933345  0.18499916  1
  H  H52  1  0.65029334  0.90134620  0.21182885  1
  H  H53  1  0.67930259  0.60518486  0.25621932  1
  H  H54  1  0.71475320  0.52790283  0.38494672  1
  H  H55  1  0.75229052  0.55291240  0.52264408  1
  H  H56  1  0.78970630  0.59932864  0.67779909  1
  H  H57  1  0.83959858  0.68529932  0.80321093  1
  H  H58  1  0.89489188  0.81890804  0.79550065  1
  H  H59  1  0.76421807  0.82561896  0.88989204  1
  H  H60  1  0.69916709  0.88485673  0.81639914  1
  H  H61  1  0.66907539  0.75869661  0.84454657  1
  H  H62  1  0.74725397  0.95793605  0.48208782  1
  H  H63  1  0.71089846  0.92984001  0.34332709  1
  Pb  Pb64  1  0.98569724  0.99946211  0.01737739  1
  Pb  Pb65  1  -0.00276238  0.51116195  0.00787798  1
  Pb  Pb66  1  0.48533500  0.97256800  0.00273529  1
  Pb  Pb67  1  0.49560009  0.48700007  0.99863383  1
  C  C68  1  0.19311453  0.18720605  0.79044476  1
  C  C69  1  0.20747041  0.22929077  0.70916588  1
  C  C70  1  0.20726322  0.34354005  0.69614714  1
  C  C71  1  0.21962768  0.38597580  0.62280837  1
  C  C72  1  0.23405546  0.31708308  0.55793488  1
  C  C73  1  0.25094505  0.35993183  0.48262796  1
  C  C74  1  0.26716293  0.29085272  0.42041722  1
  C  C75  1  0.28898565  0.31692878  0.34046566  1
  C  C76  1  0.30322091  0.22726899  0.29557266  1
  C  C77  1  0.33575617  0.22963883  0.21207224  1
  C  C78  1  0.26487331  0.17536132  0.43374054  1
  C  C79  1  0.24717197  0.13074921  0.50685190  1
  C  C80  1  0.23256884  0.20075557  0.57051532  1
  C  C81  1  0.21859250  0.15983186  0.64748217  1
  C  C82  1  0.18023350  0.82042083  0.78584476  1
  C  C83  1  0.22540970  0.80051692  0.70611325  1
  C  C84  1  0.34093073  0.79857676  0.69325723  1
  C  C85  1  0.38516219  0.78198880  0.62050538  1
  C  C86  1  0.31700084  0.76579289  0.55654186  1
  C  C87  1  0.36130361  0.74693561  0.48178154  1
  C  C88  1  0.29261119  0.73007937  0.42062822  1
  C  C89  1  0.32018444  0.70848412  0.34128893  1
  C  C90  1  0.23075891  0.69510093  0.29722242  1
  C  C91  1  0.23374168  0.66877630  0.21360024  1
  C  C92  1  0.17595731  0.73320832  0.43430018  1
  C  C93  1  0.12992334  0.75256485  0.50681424  1
  C  C94  1  0.19953253  0.76853097  0.56928883  1
  C  C95  1  0.15685905  0.78647169  0.64537339  1
  C  C96  1  0.82213377  0.32751911  0.21255046  1
  C  C97  1  0.77571322  0.30292410  0.29194024  1
  C  C98  1  0.66004314  0.30058357  0.30394142  1
  C  C99  1  0.61473603  0.28115390  0.37634815  1
  C  C100  1  0.68185813  0.26399756  0.44098377  1
  C  C101  1  0.63595605  0.24761051  0.51584907  1
  C  C102  1  0.70300494  0.23553695  0.57854263  1
  C  C103  1  0.67235630  0.22341184  0.65858997  1
  C  C104  1  0.75947887  0.21609232  0.70536137  1
  C  C105  1  0.75115630  0.19463665  0.78983434  1
  C  C106  1  0.81996311  0.23754504  0.56634049  1
  C  C107  1  0.86768607  0.25245774  0.49331865  1
  C  C108  1  0.79948458  0.26670606  0.42937947  1
  C  C109  1  0.84321174  0.28599148  0.35328299  1
  C  C110  1  0.67370983  0.81556962  0.21199567  1
  C  C111  1  0.69487618  0.77311238  0.29177845  1
  C  C112  1  0.69588970  0.65865879  0.30419480  1
  C  C113  1  0.71456869  0.61573646  0.37598399  1
  C  C114  1  0.73292261  0.68418076  0.43990140  1
  C  C115  1  0.75127729  0.64084843  0.51402542  1
  C  C116  1  0.76733877  0.70931746  0.57584454  1
  C  C117  1  0.78528113  0.68203190  0.65510172  1
  C  C118  1  0.79781811  0.77080229  0.70033437  1
  C  C119  1  0.82325783  0.76853551  0.78353896  1
  C  C120  1  0.76612499  0.82496619  0.56318271  1
  C  C121  1  0.74834721  0.87009075  0.49109008  1
  C  C122  1  0.73127239  0.80056800  0.42802918  1
  C  C123  1  0.71212958  0.84193610  0.35252915  1
  S  S124  1  0.29093120  0.10511558  0.34834451  1
  S  S125  1  0.10670574  0.70747819  0.35015466  1
  S  S126  1  0.88570288  0.22057431  0.65375169  1
  S  S127  1  0.79006573  0.89381392  0.64860014  1
  I  I128  1  0.23325831  0.95823643  0.97188770  1
  I  I129  1  0.24881685  0.58978066  0.00605900  1
  I  I130  1  0.73057517  0.05701349  0.02207746  1
  I  I131  1  0.74887726  0.42754617  0.00648895  1
  I  I132  1  0.05022694  0.25356354  0.02216735  1
  I  I133  1  0.93416540  0.75485824  0.97674617  1
  I  I134  1  0.43337627  0.23411496  0.00834407  1
  I  I135  1  0.58276469  0.73607628  0.00090007  1
  I  I136  1  0.96352909  0.02075778  0.83838257  1
  I  I137  1  0.98424235  0.99716929  0.20964648  1
  I  I138  1  0.99775577  0.49930203  0.81782690  1
  I  I139  1  0.95387410  0.58570577  0.18275848  1
  I  I140  1  0.50964761  0.00059512  0.81505883  1
  I  I141  1  0.40600252  0.94347564  0.18189403  1
  I  I142  1  0.48971085  0.46113261  0.81367650  1
  I  I143  1  0.49123547  0.50010291  0.18176874  1
  N  N144  1  0.29401399  0.20225850  0.83687844  1
  N  N145  1  0.25170243  0.18262920  0.16035924  1
  N  N146  1  0.18626673  0.72161067  0.83759166  1
  N  N147  1  0.19238420  0.75967752  0.16370388  1
  N  N148  1  0.81415298  0.23214860  0.15953583  1
  N  N149  1  0.80050213  0.28139245  0.83878416  1
  N  N150  1  0.77307542  0.80607860  0.15879948  1
  N  N151  1  0.73318831  0.81256253  0.83567363  1
