# generated using pymatgen
data_H15PbC12I4N2F
_symmetry_space_group_name_H-M   'P 1'
_cell_length_a   12.31307327
_cell_length_b   12.29442712
_cell_length_c   14.92917861
_cell_angle_alpha   89.49765437
_cell_angle_beta   89.06580034
_cell_angle_gamma   89.90248939
_symmetry_Int_Tables_number   1
_chemical_formula_structural   H15PbC12I4N2F
_chemical_formula_sum   'H60 Pb4 C48 I16 N8 F4'
_cell_volume   2259.62163095
_cell_formula_units_Z   4
loop_
 _symmetry_equiv_pos_site_id
 _symmetry_equiv_pos_as_xyz
  1  'x, y, z'
loop_
 _atom_site_type_symbol
 _atom_site_label
 _atom_site_symmetry_multiplicity
 _atom_site_fract_x
 _atom_site_fract_y
 _atom_site_fract_z
 _atom_site_occupancy
  H  H0  1  0.18330822  0.21435352  0.80903240  1
  H  H1  1  0.25384582  0.28340817  0.88333946  1
  H  H2  1  0.18457024  0.35009557  0.80382747  1
  H  H3  1  0.38539295  0.34345714  0.77822848  1
  H  H4  1  0.37357570  0.19894876  0.77482887  1
  H  H5  1  0.31183329  0.45953816  0.65715674  1
  H  H6  1  0.27043753  0.47515079  0.49587124  1
  H  H7  1  0.10224322  0.25152494  0.23283433  1
  H  H8  1  0.18626919  0.13923843  0.20585427  1
  H  H9  1  0.21642341  0.29736905  0.11582101  1
  H  H10  1  0.33118990  0.26551756  0.16789385  1
  H  H11  1  0.25557269  0.37098799  0.20387169  1
  H  H12  1  0.21650866  0.03724688  0.33633121  1
  H  H13  1  0.26143171  0.02097314  0.49725674  1
  H  H14  1  0.30282963  0.10983941  0.64270388  1
  H  H15  1  0.21308385  0.82187023  0.80762142  1
  H  H16  1  0.28200716  0.75267829  0.88445523  1
  H  H17  1  0.34833915  0.82168752  0.80316223  1
  H  H18  1  0.34610318  0.62081826  0.78295649  1
  H  H19  1  0.20166645  0.62899442  0.77968139  1
  H  H20  1  0.46050934  0.69161989  0.65909881  1
  H  H21  1  0.47587334  0.73026469  0.49589641  1
  H  H22  1  0.25723796  0.89256727  0.22952126  1
  H  H23  1  0.14220758  0.81259413  0.20565011  1
  H  H24  1  0.29726807  0.77515763  0.11547614  1
  H  H25  1  0.26588720  0.66187366  0.17270682  1
  H  H26  1  0.37250640  0.73767469  0.20350273  1
  H  H27  1  0.03898177  0.78134054  0.33731851  1
  H  H28  1  0.02226770  0.73759430  0.49919973  1
  H  H29  1  0.11130065  0.69810164  0.64588890  1
  H  H30  1  0.78997873  0.31103479  0.18770484  1
  H  H31  1  0.71987395  0.23814224  0.11518699  1
  H  H32  1  0.65493939  0.31335139  0.19371570  1
  H  H33  1  0.65602364  0.11281464  0.22210828  1
  H  H34  1  0.80031401  0.12130174  0.22549045  1
  H  H35  1  0.54019225  0.18999617  0.34260233  1
  H  H36  1  0.52454319  0.23355749  0.50433944  1
  H  H37  1  0.74427857  0.39507866  0.76768011  1
  H  H38  1  0.85817462  0.31323839  0.79419189  1
  H  H39  1  0.69677792  0.28019592  0.88251894  1
  H  H40  1  0.73611162  0.16628549  0.83320446  1
  H  H41  1  0.62903373  0.23519633  0.79334195  1
  H  H42  1  0.96196194  0.27691139  0.66379034  1
  H  H43  1  0.97820191  0.23377453  0.50197711  1
  H  H44  1  0.88946324  0.19439880  0.35642372  1
  H  H45  1  0.67985664  0.78050466  0.19022652  1
  H  H46  1  0.75832298  0.71737151  0.11474010  1
  H  H47  1  0.68887751  0.64505580  0.19386868  1
  H  H48  1  0.88615983  0.65900412  0.21887304  1
  H  H49  1  0.87033085  0.80334584  0.22152003  1
  H  H50  1  0.80843283  0.54147568  0.33980414  1
  H  H51  1  0.76932714  0.52576497  0.50294395  1
  H  H52  1  0.60675723  0.74489490  0.77227945  1
  H  H53  1  0.68795834  0.85884572  0.79672681  1
  H  H54  1  0.72563151  0.70107681  0.88439438  1
  H  H55  1  0.83758819  0.73515583  0.82694245  1
  H  H56  1  0.76277569  0.62839771  0.79470940  1
  H  H57  1  0.72030476  0.96314213  0.66575809  1
  H  H58  1  0.76312689  0.97995084  0.50327719  1
  H  H59  1  0.80276524  0.89126048  0.35585528  1
  Pb  Pb60  1  0.00059122  0.00003651  0.99547510  1
  Pb  Pb61  1  0.01008048  0.50236327  0.00044431  1
  Pb  Pb62  1  0.49380129  0.00268592  0.99849241  1
  Pb  Pb63  1  0.51712379  0.49902193  0.00947551  1
  C  C64  1  0.33322500  0.27595442  0.75777382  1
  C  C65  1  0.30776325  0.28298491  0.65997425  1
  C  C66  1  0.29909503  0.38649675  0.61780675  1
  C  C67  1  0.27685862  0.39557576  0.52797668  1
  C  C68  1  0.26209062  0.30051128  0.47639674  1
  C  C69  1  0.23784024  0.30366870  0.38423444  1
  C  C70  1  0.22131382  0.21266344  0.33281277  1
  C  C71  1  0.18544327  0.21938089  0.23728836  1
  C  C72  1  0.23075614  0.10968514  0.37592328  1
  C  C73  1  0.25477841  0.10083245  0.46546187  1
  C  C74  1  0.27049872  0.19510918  0.51794480  1
  C  C75  1  0.29416624  0.18946982  0.61056837  1
  C  C76  1  0.27741667  0.67124649  0.76128064  1
  C  C77  1  0.28423074  0.69524251  0.66258720  1
  C  C78  1  0.38767184  0.70374434  0.61957751  1
  C  C79  1  0.39659512  0.72412637  0.52895530  1
  C  C80  1  0.30151868  0.73751152  0.47757689  1
  C  C81  1  0.30497818  0.76007726  0.38474580  1
  C  C82  1  0.21427428  0.77615626  0.33323321  1
  C  C83  1  0.22218864  0.81062947  0.23671134  1
  C  C84  1  0.11130050  0.76721782  0.37689196  1
  C  C85  1  0.10221757  0.74410005  0.46712765  1
  C  C86  1  0.19620463  0.72936973  0.51978461  1
  C  C87  1  0.19078285  0.70708257  0.61315738  1
  C  C88  1  0.72432996  0.16422499  0.24191275  1
  C  C89  1  0.71663480  0.19232132  0.33939452  1
  C  C90  1  0.61302686  0.20286635  0.38181961  1
  C  C91  1  0.60393980  0.22611444  0.47168248  1
  C  C92  1  0.69883717  0.23979033  0.52302698  1
  C  C93  1  0.69569950  0.26409335  0.61525359  1
  C  C94  1  0.78657606  0.27755844  0.66678803  1
  C  C95  1  0.77852520  0.31263349  0.76262517  1
  C  C96  1  0.88960852  0.26560456  0.62384557  1
  C  C97  1  0.89840480  0.24242904  0.53391473  1
  C  C98  1  0.80429020  0.22924308  0.48138224  1
  C  C99  1  0.80991883  0.20495306  0.38869482  1
  C  C100  1  0.83170792  0.72549893  0.23956537  1
  C  C101  1  0.80504708  0.71812460  0.33782105  1
  C  C102  1  0.79614618  0.61433536  0.37992092  1
  C  C103  1  0.77533310  0.60528271  0.47049517  1
  C  C104  1  0.76180471  0.70037061  0.52267875  1
  C  C105  1  0.73897774  0.69687943  0.61553491  1
  C  C106  1  0.72323402  0.78749731  0.66800008  1
  C  C107  1  0.68888871  0.77903634  0.76475055  1
  C  C108  1  0.73298913  0.89076603  0.62525420  1
  C  C109  1  0.75595398  0.89994775  0.53489165  1
  C  C110  1  0.77019973  0.80594384  0.48136595  1
  C  C111  1  0.79289810  0.81161607  0.38796612  1
  I  I112  1  0.24631702  0.92479441  0.00805713  1
  I  I113  1  0.26265358  0.55547703  1.00122998  1
  I  I114  1  0.74622523  0.06488388  0.99761238  1
  I  I115  1  0.76323789  0.42679959  0.99524636  1
  I  I116  1  0.06976195  0.24863101  0.00210233  1
  I  I117  1  0.92481020  0.74872775  0.00271587  1
  I  I118  1  0.43384952  0.25292231  0.99704197  1
  I  I119  1  0.55915958  0.75103642  0.99443979  1
  I  I120  1  0.03185138  0.99301129  0.78233743  1
  I  I121  1  0.98494838  0.99947681  0.21316893  1
  I  I122  1  0.02245323  0.49456757  0.78214796  1
  I  I123  1  -0.00070677  0.46615814  0.21166967  1
  I  I124  1  0.47665100  0.99200260  0.77934959  1
  I  I125  1  0.48340878  0.97922980  0.20917353  1
  I  I126  1  0.53778384  0.50353376  0.79916525  1
  I  I127  1  0.53433602  0.49216436  0.22869768  1
  N  N128  1  0.23258539  0.28160211  0.81636648  1
  N  N129  1  0.25296938  0.29346069  0.17851499  1
  N  N130  1  0.28057800  0.77272779  0.81689981  1
  N  N131  1  0.29445845  0.74009211  0.17964802  1
  N  N132  1  0.72170330  0.26297876  0.18150553  1
  N  N133  1  0.70504570  0.24297354  0.82030289  1
  N  N134  1  0.73291855  0.71623440  0.18167797  1
  N  N135  1  0.75959336  0.70603574  0.82015141  1
  F  F136  1  0.22986729  0.40451932  0.34426860  1
  F  F137  1  0.40567176  0.76664203  0.34420486  1
  F  F138  1  0.59502789  0.27515816  0.65564057  1
  F  F139  1  0.73167144  0.59570523  0.65521497  1
