# generated using pymatgen
data_H16PbC14S2(I2N)2
_symmetry_space_group_name_H-M   'P 1'
_cell_length_a   12.46816548
_cell_length_b   12.51378627
_cell_length_c   18.50306536
_cell_angle_alpha   88.43843800
_cell_angle_beta   91.67779055
_cell_angle_gamma   90.41997034
_symmetry_Int_Tables_number   1
_chemical_formula_structural   H16PbC14S2(I2N)2
_chemical_formula_sum   'H64 Pb4 C56 S8 I16 N8'
_cell_volume   2884.55050804
_cell_formula_units_Z   4
loop_
 _symmetry_equiv_pos_site_id
 _symmetry_equiv_pos_as_xyz
  1  'x, y, z'
loop_
 _atom_site_type_symbol
 _atom_site_label
 _atom_site_symmetry_multiplicity
 _atom_site_fract_x
 _atom_site_fract_y
 _atom_site_fract_z
 _atom_site_occupancy
  H  H0  1  0.18514224  0.26800440  0.85952260  1
  H  H1  1  0.14932749  0.38493206  0.82029837  1
  H  H2  1  0.23097299  0.38218426  0.89260160  1
  H  H3  1  0.37278251  0.29877059  0.83279637  1
  H  H4  1  0.33816826  0.42404025  0.79294117  1
  H  H5  1  0.30147440  0.12943614  0.77454523  1
  H  H6  1  0.28201933  0.03982395  0.65744147  1
  H  H7  1  0.25644516  0.07012140  0.50801625  1
  H  H8  1  0.26435733  0.05323399  0.38285587  1
  H  H9  1  0.21784264  0.07890881  0.24376574  1
  H  H10  1  0.14231380  0.21836222  0.15460285  1
  H  H11  1  0.10009820  0.34256699  0.18849740  1
  H  H12  1  0.29355823  0.40145284  0.17881146  1
  H  H13  1  0.22017321  0.38740012  0.10311238  1
  H  H14  1  0.31080036  0.29495198  0.12711075  1
  H  H15  1  0.29130125  0.44036984  0.66652759  1
  H  H16  1  0.27326312  0.79987762  0.86138305  1
  H  H17  1  0.39010336  0.83764443  0.82592182  1
  H  H18  1  0.38804041  0.75462645  0.89756260  1
  H  H19  1  0.30341687  0.61425452  0.83326687  1
  H  H20  1  0.42866662  0.65096166  0.79759230  1
  H  H21  1  0.13251928  0.69178722  0.77122465  1
  H  H22  1  0.04090867  0.71789732  0.65186249  1
  H  H23  1  0.06968641  0.74747643  0.50339337  1
  H  H24  1  0.05052585  0.74557723  0.37866710  1
  H  H25  1  0.07502683  0.79343040  0.24093695  1
  H  H26  1  0.21419346  0.86121592  0.15553349  1
  H  H27  1  0.34510197  0.89574983  0.18926440  1
  H  H28  1  0.39788517  0.71073633  0.17811922  1
  H  H29  1  0.35234761  0.76617304  0.09986109  1
  H  H30  1  0.27362614  0.67912789  0.14599970  1
  H  H31  1  0.44284189  0.69910050  0.67225854  1
  H  H32  1  0.71910636  0.29662005  0.13443221  1
  H  H33  1  0.60974878  0.32953720  0.17925542  1
  H  H34  1  0.59870011  0.25367729  0.10620597  1
  H  H35  1  0.70129325  0.11113807  0.16687243  1
  H  H36  1  0.57448446  0.13536844  0.20371476  1
  H  H37  1  0.86937762  0.17662970  0.22911082  1
  H  H38  1  0.96138310  0.21029700  0.34687529  1
  H  H39  1  0.93300045  0.24358794  0.49385063  1
  H  H40  1  0.95305184  0.22964176  0.61771589  1
  H  H41  1  0.93104879  0.25183645  0.75736110  1
  H  H42  1  0.79773030  0.31716814  0.84387364  1
  H  H43  1  0.68109956  0.37645099  0.80465068  1
  H  H44  1  0.60900080  0.17504044  0.81669360  1
  H  H45  1  0.60456686  0.26723718  0.88036714  1
  H  H46  1  0.69922880  0.17321709  0.88524190  1
  H  H47  1  0.55924825  0.19414476  0.32685992  1
  H  H48  1  0.69489262  0.74136058  0.14747550  1
  H  H49  1  0.66671731  0.61755257  0.17731309  1
  H  H50  1  0.74072637  0.63446353  0.10376021  1
  H  H51  1  0.88804210  0.70733010  0.16833702  1
  H  H52  1  0.85430059  0.57955656  0.20491793  1
  H  H53  1  0.82512164  0.87294990  0.22703682  1
  H  H54  1  0.79331433  0.96125921  0.34229671  1
  H  H55  1  0.75643481  0.92917884  0.48947885  1
  H  H56  1  0.77382937  0.94433460  0.61552477  1
  H  H57  1  0.73932471  0.91729939  0.75430869  1
  H  H58  1  0.65911519  0.77944492  0.84037651  1
  H  H59  1  0.61100590  0.65727402  0.80517408  1
  H  H60  1  0.81522180  0.60341205  0.82144443  1
  H  H61  1  0.72663608  0.59616509  0.88744222  1
  H  H62  1  0.81439193  0.69754947  0.88388185  1
  H  H63  1  0.80362722  0.56104759  0.33213600  1
  Pb  Pb64  1  1.00139661  0.01958927  0.98829145  1
  Pb  Pb65  1  0.00848680  0.52559542  0.00167595  1
  Pb  Pb66  1  0.50680643  0.98356787  0.00567439  1
  Pb  Pb67  1  0.50580934  0.49508927  0.02829971  1
  C  C68  1  0.31160752  0.34087177  0.79924494  1
  C  C69  1  0.29512053  0.28991592  0.72751606  1
  C  C70  1  0.29295316  0.17732957  0.72456301  1
  C  C71  1  0.28275420  0.12684072  0.65912261  1
  C  C72  1  0.27445702  0.18866503  0.59441457  1
  C  C73  1  0.26247655  0.15390144  0.52199672  1
  C  C74  1  0.25657183  0.23656928  0.47127533  1
  C  C75  1  0.24184335  0.22497132  0.39391720  1
  C  C76  1  0.24643070  0.13017946  0.35665260  1
  C  C77  1  0.22380257  0.14365123  0.28189092  1
  C  C78  1  0.20224432  0.24824655  0.26112140  1
  C  C79  1  0.16712925  0.28628511  0.18762642  1
  C  C80  1  0.27735142  0.30232774  0.59790169  1
  C  C81  1  0.28786684  0.35328961  0.66409025  1
  C  C82  1  0.34535056  0.67640535  0.80172349  1
  C  C83  1  0.29296184  0.69567778  0.72890838  1
  C  C84  1  0.17996485  0.70101579  0.72277006  1
  C  C85  1  0.12827031  0.71481171  0.65600726  1
  C  C86  1  0.18935951  0.72372676  0.59317628  1
  C  C87  1  0.15377557  0.73923190  0.51991824  1
  C  C88  1  0.23626210  0.74515146  0.47189554  1
  C  C89  1  0.22409186  0.76268720  0.39455159  1
  C  C90  1  0.12773358  0.76279185  0.35489243  1
  C  C91  1  0.14039823  0.78692253  0.28096206  1
  C  C92  1  0.24579042  0.80445345  0.26300706  1
  C  C93  1  0.28262891  0.83354691  0.18953056  1
  C  C94  1  0.30341335  0.71794649  0.59998566  1
  C  C95  1  0.35548032  0.70395662  0.66743115  1
  C  C96  1  0.65600380  0.16732956  0.19854613  1
  C  C97  1  0.70893896  0.18710603  0.27067523  1
  C  C98  1  0.82212336  0.19142312  0.27664139  1
  C  C99  1  0.87391490  0.20878511  0.34259472  1
  C  C100  1  0.81291170  0.22103915  0.40483173  1
  C  C101  1  0.84876373  0.23600373  0.47760779  1
  C  C102  1  0.76661775  0.24006655  0.52578170  1
  C  C103  1  0.78006140  0.25042961  0.60326832  1
  C  C104  1  0.87657147  0.24324539  0.64252440  1
  C  C105  1  0.86529120  0.25434598  0.71740991  1
  C  C106  1  0.76077010  0.27007605  0.73642061  1
  C  C107  1  0.72716561  0.30203684  0.80876813  1
  C  C108  1  0.69878538  0.21538435  0.39825959  1
  C  C109  1  0.64662573  0.19918522  0.33153658  1
  C  C110  1  0.82858984  0.66306963  0.20017718  1
  C  C111  1  0.81345138  0.71192783  0.27232407  1
  C  C112  1  0.81169303  0.82451468  0.27593093  1
  C  C113  1  0.79506066  0.87425012  0.34048007  1
  C  C114  1  0.78147780  0.81175376  0.40411021  1
  C  C115  1  0.76462034  0.84566363  0.47572644  1
  C  C116  1  0.75820090  0.76261735  0.52592702  1
  C  C117  1  0.74461970  0.77360389  0.60289272  1
  C  C118  1  0.75422960  0.86757486  0.64095249  1
  C  C119  1  0.73675138  0.85340135  0.71551190  1
  C  C120  1  0.71380550  0.74900973  0.73545664  1
  C  C121  1  0.68083538  0.71107397  0.80813113  1
  C  C122  1  0.78592754  0.69823824  0.40036912  1
  C  C123  1  0.80091518  0.64803008  0.33475811  1
  S  S124  1  0.20902954  0.33075286  0.33491564  1
  S  S125  1  0.26675726  0.36141923  0.51176622  1
  S  S126  1  0.33042869  0.79259448  0.33872293  1
  S  S127  1  0.36178069  0.73044162  0.51595930  1
  S  S128  1  0.67517217  0.27252156  0.66070040  1
  S  S129  1  0.64074138  0.22752661  0.48201929  1
  S  S130  1  0.71283439  0.66748502  0.66107641  1
  S  S131  1  0.77151750  0.63831458  0.48566182  1
  I  I132  1  0.26057298  0.91728897  0.99652187  1
  I  I133  1  0.26644733  0.55036918  0.98150826  1
  I  I134  1  0.75203444  0.08393774  1.00103823  1
  I  I135  1  0.76691006  0.44446909  0.03237891  1
  I  I136  1  0.06980858  0.26802773  0.99701019  1
  I  I137  1  0.91401919  0.76009304  0.99577725  1
  I  I138  1  0.43461429  0.23689230  0.02164121  1
  I  I139  1  0.56159882  0.73454877  0.98839737  1
  I  I140  1  0.01850608  0.01529849  0.81947058  1
  I  I141  1  0.01016828  0.00627541  0.16044899  1
  I  I142  1  0.98824208  0.50226260  0.82266165  1
  I  I143  1  0.09487851  0.56686827  0.16329415  1
  I  I144  1  0.50869705  0.99461010  0.82613378  1
  I  I145  1  0.56513790  0.90136344  0.16931856  1
  I  I146  1  0.53567224  0.47330116  0.86622764  1
  I  I147  1  0.49812813  0.49942757  0.20986797  1
  N  N148  1  0.21363383  0.34283886  0.84474098  1
  N  N149  1  0.25402931  0.34576144  0.14720926  1
  N  N150  1  0.34806095  0.77261528  0.84861589  1
  N  N151  1  0.33029915  0.74042566  0.15111239  1
  N  N152  1  0.64630703  0.26795981  0.15243468  1
  N  N153  1  0.65616704  0.22432267  0.84914842  1
  N  N154  1  0.72652127  0.66462817  0.15424303  1
  N  N155  1  0.76440067  0.64886024  0.85204665  1
