# generated using pymatgen
data_H18PbC13(I2N)2
_symmetry_space_group_name_H-M   'P 1'
_cell_length_a   12.94902574
_cell_length_b   12.83968655
_cell_length_c   15.09627998
_cell_angle_alpha   91.37670122
_cell_angle_beta   91.18184609
_cell_angle_gamma   90.74158793
_symmetry_Int_Tables_number   1
_chemical_formula_structural   H18PbC13(I2N)2
_chemical_formula_sum   'H72 Pb4 C52 I16 N8'
_cell_volume   2508.44406834
_cell_formula_units_Z   4
loop_
 _symmetry_equiv_pos_site_id
 _symmetry_equiv_pos_as_xyz
  1  'x, y, z'
loop_
 _atom_site_type_symbol
 _atom_site_label
 _atom_site_symmetry_multiplicity
 _atom_site_fract_x
 _atom_site_fract_y
 _atom_site_fract_z
 _atom_site_occupancy
  H  H0  1  0.07438839  0.23939085  0.74183716  1
  H  H1  1  0.11715690  0.24530332  0.85403499  1
  H  H2  1  0.14856311  0.13664177  0.78491944  1
  H  H3  1  0.22644551  0.36188897  0.76599316  1
  H  H4  1  0.38377588  0.30643140  0.81243469  1
  H  H5  1  0.35484834  0.17676793  0.80671204  1
  H  H6  1  0.30280347  0.25326501  0.88418253  1
  H  H7  1  0.25931042  0.08357950  0.67446603  1
  H  H8  1  0.29800797  0.04663712  0.51825854  1
  H  H9  1  0.34048968  0.11208010  0.36693252  1
  H  H10  1  0.43068416  0.32239892  0.22226836  1
  H  H11  1  0.42130629  0.18470508  0.23491432  1
  H  H12  1  0.25521557  0.32249537  0.16771756  1
  H  H13  1  0.32137204  0.23287905  0.11346859  1
  H  H14  1  0.23973742  0.19491674  0.18870012  1
  H  H15  1  0.35387135  0.44286165  0.32589489  1
  H  H16  1  0.30667156  0.47815340  0.48198152  1
  H  H17  1  0.26819881  0.41399830  0.62919325  1
  H  H18  1  0.22700463  0.92544153  0.75070198  1
  H  H19  1  0.23873444  0.88457998  0.86143016  1
  H  H20  1  0.13007342  0.84421683  0.79451731  1
  H  H21  1  0.35661594  0.78301807  0.76902631  1
  H  H22  1  0.30206609  0.61309138  0.80277151  1
  H  H23  1  0.17728727  0.64579120  0.81381035  1
  H  H24  1  0.26981112  0.69542875  0.88442758  1
  H  H25  1  0.08242618  0.74006115  0.67594232  1
  H  H26  1  0.04679246  0.69991066  0.51820551  1
  H  H27  1  0.11223564  0.65622850  0.36678236  1
  H  H28  1  0.32513095  0.57318658  0.21775182  1
  H  H29  1  0.18883097  0.56401480  0.23553518  1
  H  H30  1  0.30111317  0.74943401  0.17098007  1
  H  H31  1  0.22603001  0.66565737  0.11377372  1
  H  H32  1  0.17338790  0.74191629  0.19107627  1
  H  H33  1  0.44041454  0.65237971  0.32423077  1
  H  H34  1  0.47504763  0.69848573  0.48266411  1
  H  H35  1  0.41040378  0.73426646  0.63234164  1
  H  H36  1  0.76968608  0.42896354  0.25717443  1
  H  H37  1  0.76173042  0.38653109  0.14496201  1
  H  H38  1  0.86905776  0.35103726  0.21303202  1
  H  H39  1  0.64232952  0.28299982  0.23332154  1
  H  H40  1  0.68770211  0.11903604  0.18745439  1
  H  H41  1  0.81665162  0.14122987  0.19282052  1
  H  H42  1  0.74441757  0.19717980  0.11472609  1
  H  H43  1  0.91642122  0.24245829  0.32447574  1
  H  H44  1  0.95154806  0.20192149  0.48037932  1
  H  H45  1  0.88506525  0.15897986  0.63143914  1
  H  H46  1  0.67118086  0.07423879  0.77558035  1
  H  H47  1  0.80806064  0.07475642  0.76200944  1
  H  H48  1  0.68532724  0.25171709  0.83075871  1
  H  H49  1  0.76455845  0.17416987  0.88623557  1
  H  H50  1  0.81286418  0.25508849  0.81343637  1
  H  H51  1  0.55649584  0.15705441  0.67341134  1
  H  H52  1  0.52359541  0.20131757  0.51657247  1
  H  H53  1  0.58840838  0.23588017  0.36934132  1
  H  H54  1  0.57147016  0.75694135  0.25404016  1
  H  H55  1  0.60911503  0.74501102  0.14204396  1
  H  H56  1  0.64274406  0.85879713  0.20685093  1
  H  H57  1  0.72661531  0.63865303  0.23014869  1
  H  H58  1  0.88239889  0.70795044  0.18812655  1
  H  H59  1  0.84346596  0.83367558  0.19046092  1
  H  H60  1  0.79558746  0.74822661  0.11357770  1
  H  H61  1  0.75276194  0.91825861  0.32377901  1
  H  H62  1  0.79387711  0.95621474  0.48084759  1
  H  H63  1  0.84088936  0.89253213  0.63223965  1
  H  H64  1  0.92845298  0.68414409  0.78207406  1
  H  H65  1  0.92882239  0.82140332  0.76404569  1
  H  H66  1  0.75750682  0.69541051  0.83608219  1
  H  H67  1  0.83141251  0.78672640  0.88520587  1
  H  H68  1  0.74706736  0.82136684  0.80743161  1
  H  H69  1  0.84872119  0.56208376  0.67677563  1
  H  H70  1  0.80397853  0.52505688  0.51835855  1
  H  H71  1  0.76850187  0.58800424  0.36840805  1
  Pb  Pb72  1  0.00696651  1.00609870  0.01573972  1
  Pb  Pb73  1  -0.00169192  0.49434765  0.00186125  1
  Pb  Pb74  1  0.49152840  0.99070132  1.00027299  1
  Pb  Pb75  1  0.50933012  0.50252632  0.99245687  1
  C  C76  1  0.13894981  0.22123731  0.78672644  1
  C  C77  1  0.23531652  0.27726256  0.75747337  1
  C  C78  1  0.26162313  0.25264376  0.66227322  1
  C  C79  1  0.26977120  0.14818086  0.62974723  1
  C  C80  1  0.29122689  0.12717621  0.54210402  1
  C  C81  1  0.30518840  0.20944715  0.48186785  1
  C  C82  1  0.33033071  0.19197176  0.39167037  1
  C  C83  1  0.34598885  0.27512544  0.33625697  1
  C  C84  1  0.38015447  0.25840397  0.24297908  1
  C  C85  1  0.33677064  0.37876759  0.36951628  1
  C  C86  1  0.31197791  0.39831347  0.45633966  1
  C  C87  1  0.29601914  0.31486733  0.51448983  1
  C  C88  1  0.27415656  0.33360075  0.60488827  1
  C  C89  1  0.21339796  0.85984312  0.79429087  1
  C  C90  1  0.27335228  0.76684426  0.76074852  1
  C  C91  1  0.24999675  0.73887458  0.66462595  1
  C  C92  1  0.14670098  0.72934567  0.63129720  1
  C  C93  1  0.12646923  0.70737624  0.54283793  1
  C  C94  1  0.20863640  0.69427664  0.48268043  1
  C  C95  1  0.19146448  0.66825047  0.39170857  1
  C  C96  1  0.27388785  0.65387327  0.33568975  1
  C  C97  1  0.25740479  0.61487903  0.24198486  1
  C  C98  1  0.37670112  0.66685906  0.36888409  1
  C  C99  1  0.39584638  0.69138654  0.45692424  1
  C  C100  1  0.31303737  0.70488700  0.51595203  1
  C  C101  1  0.33087039  0.72677568  0.60737404  1
  C  C102  1  0.78553765  0.36346478  0.21180885  1
  C  C103  1  0.72549050  0.26875457  0.24124207  1
  C  C104  1  0.74874492  0.24141015  0.33634405  1
  C  C105  1  0.85199876  0.23204859  0.36897683  1
  C  C106  1  0.87192143  0.20965731  0.45648353  1
  C  C107  1  0.78987439  0.19632848  0.51656744  1
  C  C108  1  0.80614773  0.17090291  0.60680018  1
  C  C109  1  0.72308565  0.15785561  0.66234136  1
  C  C110  1  0.73777509  0.12091936  0.75503900  1
  C  C111  1  0.62073565  0.17058977  0.62935128  1
  C  C112  1  0.60246022  0.19410393  0.54218249  1
  C  C113  1  0.68570354  0.20697130  0.48383939  1
  C  C114  1  0.66800461  0.22889961  0.39343377  1
  C  C115  1  0.63368338  0.77398341  0.20824272  1
  C  C116  1  0.73253711  0.72370752  0.23930249  1
  C  C117  1  0.75977549  0.74922128  0.33530459  1
  C  C118  1  0.76584449  0.85391154  0.36835869  1
  C  C119  1  0.78820780  0.87549246  0.45657736  1
  C  C120  1  0.80390684  0.79366872  0.51702231  1
  C  C121  1  0.82983688  0.81215170  0.60785336  1
  C  C122  1  0.84499591  0.72993663  0.66446629  1
  C  C123  1  0.88240598  0.74932067  0.75804376  1
  C  C124  1  0.83395508  0.62567928  0.63179132  1
  C  C125  1  0.81005782  0.60523665  0.54380953  1
  C  C126  1  0.79517505  0.68785810  0.48434465  1
  C  C127  1  0.77382123  0.66859171  0.39300251  1
  I  I128  1  0.24478625  0.06301394  0.00977729  1
  I  I129  1  0.24154358  0.46162119  0.02720408  1
  I  I130  1  0.73596833  0.97733573  0.98648383  1
  I  I131  1  0.74502329  0.55797068  0.96879057  1
  I  I132  1  0.93473424  0.25451267  0.00972248  1
  I  I133  1  0.01950744  0.75722552  0.99373536  1
  I  I134  1  0.52716712  0.25368145  -0.00299199  1
  I  I135  1  0.42016510  0.74972917  0.00426957  1
  I  I136  1  0.98004632  0.00892209  0.81045875  1
  I  I137  1  0.96273042  0.00197698  0.22509674  1
  I  I138  1  0.03430162  0.49538760  0.79525535  1
  I  I139  1  0.98560555  0.55549836  0.21282900  1
  I  I140  1  0.46354632  0.00344615  0.79089407  1
  I  I141  1  0.51713967  0.01992531  0.21215640  1
  I  I142  1  0.45562347  0.49054381  0.77859544  1
  I  I143  1  0.53556671  0.50375774  0.19785865  1
  N  N144  1  0.32494291  0.25084980  0.81891089  1
  N  N145  1  0.29281525  0.25249469  0.17532520  1
  N  N146  1  0.25288722  0.67449518  0.81884747  1
  N  N147  1  0.23822690  0.69985847  0.17619372  1
  N  N148  1  0.74549891  0.17581762  0.18021145  1
  N  N149  1  0.75051461  0.20702862  0.82495308  1
  N  N150  1  0.81868601  0.75682368  0.17914370  1
  N  N151  1  0.79791976  0.76400760  0.82458099  1
