# generated using pymatgen
data_H16PbC14S(I2N)2
_symmetry_space_group_name_H-M   'P 1'
_cell_length_a   12.35776627
_cell_length_b   12.26730641
_cell_length_c   16.73661713
_cell_angle_alpha   90.14419675
_cell_angle_beta   89.85072313
_cell_angle_gamma   89.62523706
_symmetry_Int_Tables_number   1
_chemical_formula_structural   H16PbC14S(I2N)2
_chemical_formula_sum   'H64 Pb4 C56 S4 I16 N8'
_cell_volume   2537.14163886
_cell_formula_units_Z   4
loop_
 _symmetry_equiv_pos_site_id
 _symmetry_equiv_pos_as_xyz
  1  'x, y, z'
loop_
 _atom_site_type_symbol
 _atom_site_label
 _atom_site_symmetry_multiplicity
 _atom_site_fract_x
 _atom_site_fract_y
 _atom_site_fract_z
 _atom_site_occupancy
  H  H0  1  0.15821011  0.17093809  0.81084404  1
  H  H1  1  0.22598147  0.19015553  0.89558504  1
  H  H2  1  0.17304062  0.29768121  0.84860445  1
  H  H3  1  0.36321665  0.16231594  0.80454072  1
  H  H4  1  0.35798985  0.30645179  0.82049002  1
  H  H5  1  0.30037604  0.42902641  0.71462088  1
  H  H6  1  0.26478542  0.45920154  0.57062116  1
  H  H7  1  0.29376254  0.08006304  0.67996190  1
  H  H8  1  0.21568854  0.07619018  0.32099507  1
  H  H9  1  0.14973012  0.29779003  0.17864076  1
  H  H10  1  0.16678428  0.15418575  0.18960433  1
  H  H11  1  0.36115432  0.17823032  0.18322282  1
  H  H12  1  0.30041670  0.23203773  0.10380182  1
  H  H13  1  0.34801535  0.31537575  0.17591846  1
  H  H14  1  0.20366706  0.42435650  0.28456281  1
  H  H15  1  0.22947554  0.45751322  0.42937864  1
  H  H16  1  0.16413823  0.84056418  0.80998495  1
  H  H17  1  0.20899117  0.78471331  0.89396556  1
  H  H18  1  0.29795530  0.84047928  0.82813084  1
  H  H19  1  0.16365092  0.63978214  0.80737510  1
  H  H20  1  0.30726937  0.64364486  0.81994859  1
  H  H21  1  0.42635063  0.69543374  0.71267198  1
  H  H22  1  0.45611623  0.73053272  0.56845176  1
  H  H23  1  0.08001714  0.70300184  0.67945929  1
  H  H24  1  0.07732283  0.78410242  0.31993369  1
  H  H25  1  0.30112049  0.83979627  0.17594126  1
  H  H26  1  0.15783247  0.83267908  0.18750127  1
  H  H27  1  0.17228367  0.63488815  0.18924306  1
  H  H28  1  0.22624024  0.68731643  0.10692726  1
  H  H29  1  0.30802501  0.63901846  0.17925935  1
  H  H30  1  0.42302615  0.79670795  0.28381777  1
  H  H31  1  0.45481937  0.76990414  0.42894179  1
  H  H32  1  0.83670500  0.35139053  0.18287785  1
  H  H33  1  0.79842122  0.28676639  0.10063854  1
  H  H34  1  0.70479149  0.34495851  0.15965428  1
  H  H35  1  0.84255635  0.14921913  0.19151242  1
  H  H36  1  0.69949533  0.15061629  0.17784137  1
  H  H37  1  0.57775985  0.20715715  0.28359138  1
  H  H38  1  0.54566438  0.23400256  0.42856509  1
  H  H39  1  0.92365653  0.21373335  0.31956567  1
  H  H40  1  0.92195105  0.29264030  0.67841919  1
  H  H41  1  0.70064531  0.36483759  0.81877972  1
  H  H42  1  0.84301782  0.35969958  0.80379870  1
  H  H43  1  0.82406292  0.15431546  0.81531812  1
  H  H44  1  0.80660693  0.22886994  0.89743886  1
  H  H45  1  0.69790559  0.17935854  0.85126982  1
  H  H46  1  0.57598909  0.29754364  0.71552421  1
  H  H47  1  0.54489532  0.26357717  0.57142525  1
  H  H48  1  0.64336284  0.83752673  0.18634872  1
  H  H49  1  0.70667735  0.80089938  0.10283810  1
  H  H50  1  0.65444659  0.70458155  0.16146731  1
  H  H51  1  0.84438721  0.84752810  0.19158334  1
  H  H52  1  0.84687089  0.70348204  0.17705537  1
  H  H53  1  0.79302744  0.57929295  0.28239560  1
  H  H54  1  0.76560471  0.54604386  0.42713938  1
  H  H55  1  0.78594852  0.92744572  0.32136071  1
  H  H56  1  0.70788435  0.92390584  0.68029385  1
  H  H57  1  0.64064466  0.69853539  0.81982285  1
  H  H58  1  0.64391702  0.84241091  0.80754502  1
  H  H59  1  0.84209034  0.83219993  0.81744534  1
  H  H60  1  0.77944044  0.78658742  0.89830081  1
  H  H61  1  0.83719034  0.69684179  0.83282063  1
  H  H62  1  0.69965608  0.57518224  0.71386365  1
  H  H63  1  0.73202708  0.54455451  0.56939568  1
  Pb  Pb64  1  0.99860591  0.99796476  1.00670914  1
  Pb  Pb65  1  0.99012810  0.50927548  0.99826350  1
  Pb  Pb66  1  0.49082007  0.99142272  0.99506877  1
  Pb  Pb67  1  0.48859476  0.48771123  -0.00128790  1
  C  C68  1  0.31596535  0.23689732  0.79351517  1
  C  C69  1  0.29602944  0.25314578  0.70597732  1
  C  C70  1  0.28838580  0.35960365  0.67486733  1
  C  C71  1  0.26938243  0.37645225  0.59415356  1
  C  C72  1  0.25743920  0.28643565  0.54302872  1
  C  C73  1  0.26549558  0.17938529  0.57458785  1
  C  C74  1  0.28502832  0.16228737  0.65586449  1
  C  C75  1  0.23455476  0.17785140  0.42669476  1
  C  C76  1  0.21984371  0.15895049  0.34489882  1
  C  C77  1  0.21055933  0.24891157  0.29406823  1
  C  C78  1  0.20066470  0.23382173  0.20531764  1
  C  C79  1  0.21342251  0.35579375  0.32517223  1
  C  C80  1  0.22745562  0.37440422  0.40613055  1
  C  C81  1  0.23936964  0.28541682  0.45788404  1
  C  C82  1  0.23743567  0.68520959  0.79297495  1
  C  C83  1  0.25189230  0.69974259  0.70456387  1
  C  C84  1  0.35745424  0.70648743  0.67295650  1
  C  C85  1  0.37405914  0.72567406  0.59230023  1
  C  C86  1  0.28461391  0.73881939  0.54172105  1
  C  C87  1  0.17841517  0.73064079  0.57352182  1
  C  C88  1  0.16152972  0.71082993  0.65487426  1
  C  C89  1  0.17729956  0.76424266  0.42576022  1
  C  C90  1  0.15925022  0.77956696  0.34399761  1
  C  C91  1  0.24904206  0.78846927  0.29330249  1
  C  C92  1  0.23502063  0.79459092  0.20442269  1
  C  C93  1  0.35485290  0.78608830  0.32443594  1
  C  C94  1  0.37262200  0.77165795  0.40540927  1
  C  C95  1  0.28391593  0.75869753  0.45685358  1
  C  C96  1  0.76765723  0.19477031  0.20441493  1
  C  C97  1  0.75201929  0.21129464  0.29266089  1
  C  C98  1  0.64609253  0.21675285  0.32395652  1
  C  C99  1  0.62807509  0.23116776  0.40512340  1
  C  C100  1  0.71652337  0.24148001  0.45687569  1
  C  C101  1  0.82317618  0.23602723  0.42522651  1
  C  C102  1  0.84152529  0.22015014  0.34343132  1
  C  C103  1  0.82258158  0.26539761  0.57348162  1
  C  C104  1  0.84014692  0.28418661  0.65487671  1
  C  C105  1  0.75056008  0.29444632  0.70576836  1
  C  C106  1  0.76717535  0.31601653  0.79313260  1
  C  C107  1  0.64468425  0.28630732  0.67521917  1
  C  C108  1  0.62727669  0.26834170  0.59437876  1
  C  C109  1  0.71610801  0.25789476  0.54237155  1
  C  C110  1  0.80183567  0.77131789  0.20475908  1
  C  C111  1  0.78786468  0.75481515  0.29301459  1
  C  C112  1  0.78283162  0.64785135  0.32335743  1
  C  C113  1  0.76819575  0.62921744  0.40434843  1
  C  C114  1  0.75739682  0.71807517  0.45679889  1
  C  C115  1  0.76360688  0.82569742  0.42617254  1
  C  C116  1  0.77945515  0.84461933  0.34454887  1
  C  C117  1  0.73327057  0.82422786  0.57430891  1
  C  C118  1  0.71497922  0.84152827  0.65592374  1
  C  C119  1  0.70423595  0.75095414  0.70589053  1
  C  C120  1  0.68709332  0.76606763  0.79409976  1
  C  C121  1  0.71044431  0.64450355  0.67410674  1
  C  C122  1  0.72795782  0.62740001  0.59314814  1
  C  C123  1  0.73994268  0.71719626  0.54214420  1
  S  S124  1  0.25059665  0.07903859  0.50104317  1
  S  S125  1  0.07900384  0.74728184  0.50012083  1
  S  S126  1  0.92168307  0.25100654  0.49930214  1
  S  S127  1  0.74888402  0.92448501  0.50106060  1
  I  I128  1  0.24627496  0.05894612  0.00765674  1
  I  I129  1  0.23885349  0.43082265  0.98877187  1
  I  I130  1  0.74815724  0.94930990  0.99715383  1
  I  I131  1  0.74061258  0.54673036  0.02524524  1
  I  I132  1  0.95297867  0.25235579  0.99623305  1
  I  I133  1  0.07123089  0.75217770  0.00637792  1
  I  I134  1  0.56527816  0.23961029  0.98965996  1
  I  I135  1  0.45259433  0.74199219  1.01709001  1
  I  I136  1  0.99514760  0.00249601  0.80030305  1
  I  I137  1  0.00313344  1.00019727  0.19193757  1
  I  I138  1  0.96628920  0.54135293  0.80827653  1
  I  I139  1  1.00071066  0.49888962  0.19223900  1
  I  I140  1  0.45714285  0.96383563  0.80533457  1
  I  I141  1  0.49753230  0.00497162  0.18982765  1
  I  I142  1  0.50291444  0.50126971  0.81529809  1
  I  I143  1  0.46316400  0.48668582  0.19916297  1
  N  N144  1  0.21101584  0.22366019  0.83918060  1
  N  N145  1  0.30972017  0.24086349  0.16494291  1
  N  N146  1  0.22697149  0.79470102  0.83371816  1
  N  N147  1  0.23627478  0.68166362  0.16823818  1
  N  N148  1  0.77641669  0.30140767  0.15980603  1
  N  N149  1  0.77330676  0.21221839  0.84131249  1
  N  N150  1  0.69437160  0.77811444  0.16204782  1
  N  N151  1  0.79321677  0.76988765  0.83826715  1
