# generated using pymatgen
data_H15PbC12I4N2F
_symmetry_space_group_name_H-M   'P 1'
_cell_length_a   12.32516423
_cell_length_b   12.23717374
_cell_length_c   14.67967328
_cell_angle_alpha   91.31668715
_cell_angle_beta   91.35628874
_cell_angle_gamma   89.89577087
_symmetry_Int_Tables_number   1
_chemical_formula_structural   H15PbC12I4N2F
_chemical_formula_sum   'H60 Pb4 C48 I16 N8 F4'
_cell_volume   2212.85777062
_cell_formula_units_Z   4
loop_
 _symmetry_equiv_pos_site_id
 _symmetry_equiv_pos_as_xyz
  1  'x, y, z'
loop_
 _atom_site_type_symbol
 _atom_site_label
 _atom_site_symmetry_multiplicity
 _atom_site_fract_x
 _atom_site_fract_y
 _atom_site_fract_z
 _atom_site_occupancy
  H  H0  1  0.35379887  0.20234707  0.80627446  1
  H  H1  1  0.30913905  0.28746302  0.88862028  1
  H  H2  1  0.35798812  0.33996141  0.79414270  1
  H  H3  1  0.15287976  0.21415416  0.81588203  1
  H  H4  1  0.16441630  0.35592113  0.79179532  1
  H  H5  1  0.19677023  0.07182975  0.69916774  1
  H  H6  1  0.20596119  0.02236985  0.53522213  1
  H  H7  1  0.21306023  0.07874611  0.37414575  1
  H  H8  1  0.13822600  0.25208596  0.19881318  1
  H  H9  1  0.21075313  0.12934342  0.21996588  1
  H  H10  1  0.37782932  0.22080055  0.20307843  1
  H  H11  1  0.29608753  0.24238324  0.11301221  1
  H  H12  1  0.31766624  0.34467401  0.18983450  1
  H  H13  1  0.21270901  0.47220925  0.47425215  1
  H  H14  1  0.20102698  0.41460809  0.63755585  1
  H  H15  1  0.17412890  0.66489251  0.80755965  1
  H  H16  1  0.26342557  0.70418012  0.89069047  1
  H  H17  1  0.30879179  0.63874119  0.79812207  1
  H  H18  1  0.21755321  0.86471883  0.81346294  1
  H  H19  1  0.35472168  0.82803135  0.79358707  1
  H  H20  1  0.07174388  0.80394212  0.69837483  1
  H  H21  1  0.02252521  0.79350354  0.53402190  1
  H  H22  1  0.07780812  0.78543885  0.37375936  1
  H  H23  1  0.25019043  0.85314910  0.19571944  1
  H  H24  1  0.12530896  0.78856775  0.22049107  1
  H  H25  1  0.21857687  0.61336133  0.21225903  1
  H  H26  1  0.22602171  0.68237023  0.11606688  1
  H  H27  1  0.33528984  0.67393587  0.18567761  1
  H  H28  1  0.46905125  0.79294746  0.47194290  1
  H  H29  1  0.41199000  0.80057492  0.63718646  1
  H  H30  1  0.79953452  0.14557030  0.19437596  1
  H  H31  1  0.71938308  0.19312173  0.11002011  1
  H  H32  1  0.66209606  0.14363529  0.20261112  1
  H  H33  1  0.78885604  0.34957090  0.18545301  1
  H  H34  1  0.64791668  0.33708766  0.20790443  1
  H  H35  1  0.92868193  0.29932739  0.30126586  1
  H  H36  1  0.97741972  0.28904373  0.46554733  1
  H  H37  1  0.92135352  0.28331691  0.62614144  1
  H  H38  1  0.74863784  0.36049705  0.80138897  1
  H  H39  1  0.87080212  0.28759240  0.78040019  1
  H  H40  1  0.77933063  0.11898353  0.79630977  1
  H  H41  1  0.75804460  0.20059596  0.88648134  1
  H  H42  1  0.65655015  0.18021466  0.80926906  1
  H  H43  1  0.53072592  0.28960484  0.52589554  1
  H  H44  1  0.58842169  0.30023575  0.36228329  1
  H  H45  1  0.83801101  0.82212100  0.19234159  1
  H  H46  1  0.79940203  0.73200245  0.10958394  1
  H  H47  1  0.86315448  0.68624352  0.20249899  1
  H  H48  1  0.63997398  0.78138251  0.18552242  1
  H  H49  1  0.67385467  0.64268335  0.20629739  1
  H  H50  1  0.69756959  0.92814005  0.30081442  1
  H  H51  1  0.70667197  0.97769408  0.46510957  1
  H  H52  1  0.71393287  0.92172656  0.62565466  1
  H  H53  1  0.64353599  0.75117108  0.80182210  1
  H  H54  1  0.71207547  0.87479040  0.77796258  1
  H  H55  1  0.88329879  0.77175293  0.78971174  1
  H  H56  1  0.81263076  0.77793476  0.88511597  1
  H  H57  1  0.81506275  0.66160756  0.82271031  1
  H  H58  1  0.71262672  0.52792778  0.52729379  1
  H  H59  1  0.70270027  0.58526371  0.36236579  1
  Pb  Pb60  1  -0.00869305  0.00888195  0.00387180  1
  Pb  Pb61  1  0.99364054  0.50232875  0.99561039  1
  Pb  Pb62  1  0.48800585  0.01076433  -0.00000395  1
  Pb  Pb63  1  0.49651446  0.51480313  0.00015497  1
  C  C64  1  0.19891111  0.27446269  0.77827797  1
  C  C65  1  0.20019614  0.24687140  0.67814516  1
  C  C66  1  0.20114158  0.13558002  0.64867869  1
  C  C67  1  0.20582127  0.10806653  0.55742491  1
  C  C68  1  0.20974558  0.19038760  0.49102805  1
  C  C69  1  0.21349360  0.16451799  0.39645178  1
  C  C70  1  0.21612601  0.24513567  0.33208680  1
  C  C71  1  0.21146170  0.21812141  0.23179309  1
  C  C72  1  0.21709260  0.35511911  0.36431033  1
  C  C73  1  0.21287696  0.38581220  0.45437376  1
  C  C74  1  0.20849045  0.30324403  0.52056221  1
  C  C75  1  0.20324470  0.32892855  0.61500646  1
  C  C76  1  0.27007979  0.80537663  0.77834283  1
  C  C77  1  0.24533066  0.80065147  0.67756927  1
  C  C78  1  0.13498513  0.79895291  0.64778530  1
  C  C79  1  0.10756827  0.79393242  0.55649671  1
  C  C80  1  0.18944053  0.79094238  0.49019243  1
  C  C81  1  0.16304422  0.78697272  0.39574971  1
  C  C82  1  0.24254841  0.78598434  0.33100400  1
  C  C83  1  0.21352662  0.78480321  0.23126055  1
  C  C84  1  0.35220214  0.78784351  0.36225758  1
  C  C85  1  0.38310465  0.79142645  0.45259404  1
  C  C86  1  0.30159775  0.79339629  0.51952097  1
  C  C87  1  0.32699688  0.79799914  0.61443982  1
  C  C88  1  0.72861145  0.30216505  0.22177580  1
  C  C89  1  0.75504218  0.29907222  0.32205293  1
  C  C90  1  0.86539295  0.29588067  0.35175889  1
  C  C91  1  0.89246340  0.29068143  0.44302629  1
  C  C92  1  0.81053269  0.28823223  0.50925670  1
  C  C93  1  0.83621849  0.28407949  0.60379378  1
  C  C94  1  0.75606381  0.28289355  0.66803200  1
  C  C95  1  0.78271799  0.28704730  0.76826455  1
  C  C96  1  0.64683869  0.28405304  0.63591265  1
  C  C97  1  0.61650630  0.28822136  0.54576875  1
  C  C98  1  0.69856865  0.29118119  0.47957566  1
  C  C99  1  0.67337084  0.29699132  0.38503404  1
  C  C100  1  0.69756963  0.72766109  0.22128818  1
  C  C101  1  0.70182373  0.75315823  0.32188137  1
  C  C102  1  0.70258539  0.86438641  0.35143517  1
  C  C103  1  0.70685561  0.89200422  0.44273602  1
  C  C104  1  0.71016769  0.80953082  0.50915210  1
  C  C105  1  0.71353623  0.83588490  0.60362836  1
  C  C106  1  0.71561632  0.75578814  0.66848859  1
  C  C107  1  0.71389761  0.78579517  0.76805948  1
  C  C108  1  0.71612442  0.64538884  0.63717264  1
  C  C109  1  0.71261128  0.61444243  0.54681775  1
  C  C110  1  0.70907406  0.69655167  0.47989596  1
  C  C111  1  0.70483693  0.67091955  0.38502172  1
  I  I112  1  0.23741158  0.08819863  0.99083860  1
  I  I113  1  0.24379934  0.45174885  0.00726032  1
  I  I114  1  0.73732860  0.93629046  0.00321025  1
  I  I115  1  0.74390603  0.57002648  0.98876351  1
  I  I116  1  0.91131558  0.25634758  0.00810189  1
  I  I117  1  0.05725257  0.75734947  0.00082601  1
  I  I118  1  0.55153675  0.26344876  0.99137447  1
  I  I119  1  0.42049068  0.76476333  0.01236672  1
  I  I120  1  0.95354096  0.00200110  0.78306160  1
  I  I121  1  0.96182534  0.00352966  0.22296968  1
  I  I122  1  0.00872617  0.53376480  0.77528271  1
  I  I123  1  0.98992508  0.53145605  0.21423386  1
  I  I124  1  0.48920442  0.02676269  0.78336388  1
  I  I125  1  0.48801967  0.05099582  0.22568065  1
  I  I126  1  0.46100839  0.51811791  0.77820047  1
  I  I127  1  0.48101523  0.50137277  0.21791946  1
  N  N128  1  0.31234533  0.27519831  0.81866613  1
  N  N129  1  0.30675190  0.26100470  0.18207717  1
  N  N130  1  0.25148128  0.69675270  0.82069855  1
  N  N131  1  0.25140653  0.68200809  0.18394249  1
  N  N132  1  0.72837691  0.18872582  0.18011933  1
  N  N133  1  0.73977911  0.19042650  0.81728919  1
  N  N134  1  0.80640105  0.74430282  0.17959692  1
  N  N135  1  0.81272273  0.74594524  0.81896694  1
  F  F136  1  0.22312645  0.43440299  0.30007345  1
  F  F137  1  0.42969490  0.78478183  0.29707205  1
  F  F138  1  0.56836256  0.28053116  0.70027437  1
  F  F139  1  0.72148603  0.56687902  0.70211738  1
