# generated using pymatgen
data_H15PbC11I4N3
_symmetry_space_group_name_H-M   'P 1'
_cell_length_a   12.24112454
_cell_length_b   12.24229487
_cell_length_c   14.54484090
_cell_angle_alpha   88.39592257
_cell_angle_beta   87.98806183
_cell_angle_gamma   89.45845704
_symmetry_Int_Tables_number   1
_chemical_formula_structural   H15PbC11I4N3
_chemical_formula_sum   'H60 Pb4 C44 I16 N12'
_cell_volume   2177.40636692
_cell_formula_units_Z   4
loop_
 _symmetry_equiv_pos_site_id
 _symmetry_equiv_pos_as_xyz
  1  'x, y, z'
loop_
 _atom_site_type_symbol
 _atom_site_label
 _atom_site_symmetry_multiplicity
 _atom_site_fract_x
 _atom_site_fract_y
 _atom_site_fract_z
 _atom_site_occupancy
  H  H0  1  0.15993711  0.22021118  0.79336519  1
  H  H1  1  0.15059994  0.35845690  0.78721512  1
  H  H2  1  0.20862369  0.29511313  0.87562747  1
  H  H3  1  0.35125816  0.37102383  0.77332389  1
  H  H4  1  0.35756055  0.22538195  0.77810395  1
  H  H5  1  0.29504273  0.47084692  0.63287032  1
  H  H6  1  0.26706404  0.46768250  0.46412545  1
  H  H7  1  0.28424020  0.15214651  0.18675955  1
  H  H8  1  0.14250012  0.17453824  0.20861062  1
  H  H9  1  0.31175305  0.34908092  0.19543775  1
  H  H10  1  0.21749277  0.31935375  0.11796273  1
  H  H11  1  0.17746735  0.36812546  0.22019421  1
  H  H12  1  0.23783102  0.02058904  0.33427411  1
  H  H13  1  0.26561140  0.01419131  0.50436040  1
  H  H14  1  0.29400205  0.11844298  0.64881597  1
  H  H15  1  0.22263032  0.84933757  0.79171094  1
  H  H16  1  0.35896401  0.85156391  0.78910460  1
  H  H17  1  0.29044554  0.79043254  0.87704485  1
  H  H18  1  0.36838948  0.65163709  0.77907349  1
  H  H19  1  0.22292889  0.64890468  0.78381076  1
  H  H20  1  0.47012770  0.71205739  0.63579025  1
  H  H21  1  0.46661350  0.73665149  0.46489613  1
  H  H22  1  0.14783472  0.70705689  0.19180041  1
  H  H23  1  0.17320130  0.84798917  0.20202901  1
  H  H24  1  0.34464129  0.67200437  0.19668919  1
  H  H25  1  0.31639445  0.76988288  0.11609741  1
  H  H26  1  0.36885979  0.80334010  0.21635394  1
  H  H27  1  0.01910598  0.75849653  0.33570765  1
  H  H28  1  0.01286172  0.73497279  0.50747044  1
  H  H29  1  0.11753554  0.70896945  0.65271063  1
  H  H30  1  0.77846043  0.32940974  0.19809911  1
  H  H31  1  0.64198751  0.34148415  0.20973321  1
  H  H32  1  0.69830323  0.27373860  0.12221423  1
  H  H33  1  0.62800206  0.14035718  0.22978016  1
  H  H34  1  0.77338383  0.13400747  0.22382202  1
  H  H35  1  0.52831151  0.20393679  0.36826829  1
  H  H36  1  0.53139115  0.23517570  0.53703470  1
  H  H37  1  0.84830001  0.21134990  0.81151565  1
  H  H38  1  0.82349139  0.35328571  0.79385644  1
  H  H39  1  0.65183549  0.18063929  0.80529112  1
  H  H40  1  0.67937609  0.27440254  0.88314561  1
  H  H41  1  0.63013467  0.31423711  0.78102615  1
  H  H42  1  0.97848317  0.26043680  0.66475539  1
  H  H43  1  0.98509553  0.23562176  0.49413755  1
  H  H44  1  0.88092075  0.20429467  0.35053152  1
  H  H45  1  0.65745897  0.78088650  0.20038563  1
  H  H46  1  0.65686131  0.64396467  0.20318069  1
  H  H47  1  0.72659828  0.71263104  0.11854168  1
  H  H48  1  0.85557263  0.63792961  0.22208870  1
  H  H49  1  0.85480462  0.78350587  0.21848567  1
  H  H50  1  0.78633635  0.53425696  0.36142317  1
  H  H51  1  0.76009267  0.53578661  0.53232385  1
  H  H52  1  0.79355655  0.85211008  0.81021528  1
  H  H53  1  0.65295641  0.82445111  0.80051332  1
  H  H54  1  0.83328178  0.65775814  0.80384872  1
  H  H55  1  0.73185342  0.67972008  0.88223413  1
  H  H56  1  0.70396749  0.63077196  0.77879479  1
  H  H57  1  0.74593834  0.98224437  0.66797004  1
  H  H58  1  0.76439000  0.98946861  0.49539917  1
  H  H59  1  0.78872775  0.88655986  0.34896377  1
  Pb  Pb60  1  0.99186250  0.00643193  0.00178223  1
  Pb  Pb61  1  0.99765395  0.50931297  0.00699968  1
  Pb  Pb62  1  0.49113880  0.00336720  0.00398105  1
  Pb  Pb63  1  0.50185387  0.50424998  0.99414659  1
  C  C64  1  0.31018030  0.29641369  0.75353861  1
  C  C65  1  0.29557964  0.29402746  0.65143423  1
  C  C66  1  0.28775060  0.39309383  0.59878686  1
  C  C67  1  0.27242411  0.39215845  0.50530441  1
  C  C68  1  0.26381640  0.29156135  0.46026122  1
  C  C69  1  0.24130327  0.19856644  0.32632106  1
  C  C70  1  0.22464442  0.20355328  0.22427623  1
  C  C71  1  0.24583926  0.09503675  0.37273261  1
  C  C72  1  0.26091700  0.09189206  0.46596070  1
  C  C73  1  0.27078357  0.19119572  0.51307946  1
  C  C74  1  0.28737985  0.19488140  0.60874677  1
  C  C75  1  0.29437502  0.69526660  0.75759576  1
  C  C76  1  0.29310992  0.71127256  0.65493093  1
  C  C77  1  0.39235311  0.71892409  0.60147284  1
  C  C78  1  0.39120625  0.73181068  0.50696580  1
  C  C79  1  0.29043408  0.73784665  0.46179063  1
  C  C80  1  0.19702136  0.75362012  0.32696885  1
  C  C81  1  0.20124661  0.76568740  0.22375481  1
  C  C82  1  0.09360033  0.75087924  0.37420679  1
  C  C83  1  0.09055556  0.73898678  0.46839484  1
  C  C84  1  0.19005789  0.73147529  0.51547848  1
  C  C85  1  0.19395034  0.71732091  0.61210255  1
  C  C86  1  0.70256443  0.18279682  0.24760145  1
  C  C87  1  0.70515598  0.20303632  0.34886714  1
  C  C88  1  0.60599191  0.21217537  0.40200343  1
  C  C89  1  0.60688583  0.22915197  0.49534462  1
  C  C90  1  0.70757302  0.23774241  0.53979191  1
  C  C91  1  0.80060434  0.25785020  0.67359625  1
  C  C92  1  0.79576442  0.27134066  0.77620336  1
  C  C93  1  0.90406918  0.25406189  0.62642805  1
  C  C94  1  0.90732289  0.24021971  0.53298294  1
  C  C95  1  0.80799752  0.23063668  0.48634953  1
  C  C96  1  0.80437259  0.21252303  0.39080472  1
  C  C97  1  0.80869667  0.71089047  0.24228376  1
  C  C98  1  0.78683285  0.71122029  0.34449016  1
  C  C99  1  0.77853831  0.61157923  0.39674854  1
  C  C100  1  0.76496067  0.61166778  0.49133098  1
  C  C101  1  0.75932701  0.71190217  0.53790479  1
  C  C102  1  0.74683737  0.80424010  0.67421604  1
  C  C103  1  0.73572751  0.79850970  0.77758619  1
  C  C104  1  0.75067830  0.90806783  0.62828086  1
  C  C105  1  0.76026088  0.91171526  0.53387415  1
  C  C106  1  0.76581249  0.81267573  0.48543116  1
  C  C107  1  0.77993665  0.80984093  0.38863837  1
  I  I108  1  0.24300302  0.93245156  0.01314875  1
  I  I109  1  0.25134784  0.55892527  0.99380233  1
  I  I110  1  0.74299425  0.06083774  0.97933221  1
  I  I111  1  0.75289454  0.43888891  0.99279068  1
  I  I112  1  0.06276054  0.25466817  0.00774187  1
  I  I113  1  0.91445147  0.75478431  0.00256118  1
  I  I114  1  0.45462452  0.25258320  0.03452901  1
  I  I115  1  0.55241505  0.75190717  0.98517134  1
  I  I116  1  0.06172286  0.02518299  0.77773912  1
  I  I117  1  0.97463326  0.00167263  0.22017468  1
  I  I118  1  0.00811183  0.51803098  0.78157204  1
  I  I119  1  0.98249647  0.45306522  0.22894844  1
  I  I120  1  0.48882125  0.01705940  0.78041048  1
  I  I121  1  0.51291589  0.94468730  0.22509504  1
  I  I122  1  0.54034923  0.50132140  0.77153969  1
  I  I123  1  0.49751162  0.50468792  0.22407816  1
  N  N124  1  0.20149967  0.29263167  0.80483631  1
  N  N125  1  0.24968886  0.29297790  0.36739992  1
  N  N126  1  0.23478638  0.31761957  0.18728199  1
  N  N127  1  0.29144141  0.80226143  0.80609889  1
  N  N128  1  0.29168051  0.74804733  0.36796241  1
  N  N129  1  0.31448402  0.75044873  0.18598859  1
  N  N130  1  0.70561679  0.28810604  0.19152308  1
  N  N131  1  0.70612809  0.25075038  0.63287617  1
  N  N132  1  0.68192318  0.25839488  0.81366182  1
  N  N133  1  0.70604017  0.71181491  0.18837657  1
  N  N134  1  0.75008722  0.71000245  0.63185711  1
  N  N135  1  0.75307025  0.68476799  0.81281354  1
