# generated using pymatgen
data_H14PbC12S2(I2N)2
_symmetry_space_group_name_H-M   'P 1'
_cell_length_a   12.50612705
_cell_length_b   12.28143603
_cell_length_c   16.35853181
_cell_angle_alpha   91.18984722
_cell_angle_beta   91.20333547
_cell_angle_gamma   89.33277771
_symmetry_Int_Tables_number   1
_chemical_formula_structural   H14PbC12S2(I2N)2
_chemical_formula_sum   'H56 Pb4 C48 S8 I16 N8'
_cell_volume   2511.30556991
_cell_formula_units_Z   4
loop_
 _symmetry_equiv_pos_site_id
 _symmetry_equiv_pos_as_xyz
  1  'x, y, z'
loop_
 _atom_site_type_symbol
 _atom_site_label
 _atom_site_symmetry_multiplicity
 _atom_site_fract_x
 _atom_site_fract_y
 _atom_site_fract_z
 _atom_site_occupancy
  H  H0  1  0.18015775  0.30112747  0.82334201  1
  H  H1  1  0.24998303  0.23441601  0.89702100  1
  H  H2  1  0.18122617  0.16466925  0.82476165  1
  H  H3  1  0.37513352  0.30053106  0.80560478  1
  H  H4  1  0.37399286  0.15568756  0.80575120  1
  H  H5  1  0.30770559  0.05033883  0.68611034  1
  H  H6  1  0.26780741  0.04475340  0.53677975  1
  H  H7  1  0.30854536  0.40221529  0.68811424  1
  H  H8  1  0.21141745  0.44919152  0.31133206  1
  H  H9  1  0.15537987  0.33663294  0.18120488  1
  H  H10  1  0.12566600  0.19555879  0.19212909  1
  H  H11  1  0.34151441  0.28862959  0.16683912  1
  H  H12  1  0.27194769  0.20981433  0.10210523  1
  H  H13  1  0.32278922  0.15808202  0.18757210  1
  H  H14  1  0.29856955  0.80868291  0.83690728  1
  H  H15  1  0.22497052  0.73961637  0.90071037  1
  H  H16  1  0.16552172  0.81715814  0.82928457  1
  H  H17  1  0.30025180  0.61698804  0.80183914  1
  H  H18  1  0.15791674  0.61865557  0.79971796  1
  H  H19  1  0.05590363  0.69339264  0.68429976  1
  H  H20  1  0.05138604  0.73550220  0.53651992  1
  H  H21  1  0.40128230  0.68929640  0.68830191  1
  H  H22  1  0.44976161  0.78688087  0.31464570  1
  H  H23  1  0.34251253  0.84299075  0.18559392  1
  H  H24  1  0.20543697  0.88071118  0.19746361  1
  H  H25  1  0.28898861  0.65711002  0.16052350  1
  H  H26  1  0.21613255  0.73601988  0.09985173  1
  H  H27  1  0.16145250  0.68302810  0.18153470  1
  H  H28  1  0.69069691  0.32311699  0.17660106  1
  H  H29  1  0.77314929  0.26893884  0.10537131  1
  H  H30  1  0.82372699  0.33454890  0.18588057  1
  H  H31  1  0.70134976  0.12718264  0.19165263  1
  H  H32  1  0.84388187  0.13436969  0.19161307  1
  H  H33  1  0.94506015  0.19449826  0.31344695  1
  H  H34  1  0.94991400  0.23411673  0.46291464  1
  H  H35  1  0.59971056  0.19157655  0.31109898  1
  H  H36  1  0.55271005  0.29211710  0.68787581  1
  H  H37  1  0.66213233  0.34987997  0.81770742  1
  H  H38  1  0.79975484  0.38246896  0.80688598  1
  H  H39  1  0.71064895  0.16165196  0.83468172  1
  H  H40  1  0.79186979  0.23792033  0.89803498  1
  H  H41  1  0.83913972  0.18288770  0.81280589  1
  H  H42  1  0.68464833  0.68797888  0.17292478  1
  H  H43  1  0.74060779  0.76352845  0.10173401  1
  H  H44  1  0.67180355  0.82417868  0.17560828  1
  H  H45  1  0.87650002  0.69874494  0.19618683  1
  H  H46  1  0.86550839  0.84374935  0.19522242  1
  H  H47  1  0.80469135  0.94728791  0.31493276  1
  H  H48  1  0.76706274  0.95312565  0.46283466  1
  H  H49  1  0.80874766  0.59515495  0.31266529  1
  H  H50  1  0.70909429  0.54788209  0.68552874  1
  H  H51  1  0.64904502  0.65959835  0.81334005  1
  H  H52  1  0.61362461  0.79916922  0.79906525  1
  H  H53  1  0.82650726  0.71333322  0.85143486  1
  H  H54  1  0.74392759  0.79716513  0.90111577  1
  H  H55  1  0.80848111  0.84086509  0.82046920  1
  Pb  Pb56  1  0.01301209  0.99367651  0.99503273  1
  Pb  Pb57  1  0.00947351  0.48846352  0.99745116  1
  Pb  Pb58  1  0.51726606  0.01131531  -0.00067953  1
  Pb  Pb59  1  0.50610584  0.50341225  0.00113686  1
  C  C60  1  0.32916582  0.22838780  0.78634804  1
  C  C61  1  0.30663783  0.22648740  0.69614716  1
  C  C62  1  0.29652961  0.12613650  0.65315360  1
  C  C63  1  0.27482298  0.12269119  0.56964351  1
  C  C64  1  0.26323456  0.22090515  0.52745335  1
  C  C65  1  0.27587680  0.32209599  0.57099899  1
  C  C66  1  0.29736713  0.32493367  0.65499591  1
  C  C67  1  0.23884163  0.35120876  0.42351091  1
  C  C68  1  0.21784583  0.36987004  0.33957934  1
  C  C69  1  0.20378649  0.27312958  0.29647440  1
  C  C70  1  0.18408376  0.25960999  0.20716264  1
  C  C71  1  0.24145473  0.24080664  0.44300989  1
  C  C72  1  0.22899353  0.66505954  0.78435325  1
  C  C73  1  0.22860001  0.69304981  0.69568021  1
  C  C74  1  0.13045987  0.70499688  0.65233258  1
  C  C75  1  0.12764673  0.72805911  0.56967113  1
  C  C76  1  0.22418988  0.73949293  0.52834401  1
  C  C77  1  0.32325262  0.72640090  0.57228220  1
  C  C78  1  0.32553349  0.70306878  0.65547114  1
  C  C79  1  0.35270440  0.76184683  0.42567245  1
  C  C80  1  0.37171276  0.78118209  0.34225182  1
  C  C81  1  0.27715537  0.79465016  0.29849540  1
  C  C82  1  0.26598315  0.81708929  0.20998475  1
  C  C83  1  0.24408776  0.76022162  0.44438671  1
  C  C84  1  0.77051902  0.17547157  0.21242589  1
  C  C85  1  0.77206069  0.19439032  0.30320041  1
  C  C86  1  0.87052003  0.20500378  0.34633262  1
  C  C87  1  0.87352660  0.22620542  0.43000675  1
  C  C88  1  0.77711837  0.23715286  0.47227140  1
  C  C89  1  0.67790476  0.22431280  0.42849659  1
  C  C90  1  0.67540007  0.20292474  0.34442472  1
  C  C91  1  0.64902739  0.26296490  0.57597096  1
  C  C92  1  0.63060072  0.28547687  0.65974750  1
  C  C93  1  0.72555240  0.29979033  0.70299552  1
  C  C94  1  0.73837083  0.32137271  0.79236880  1
  C  C95  1  0.75747674  0.25955103  0.55667596  1
  C  C96  1  0.82650838  0.76903359  0.21429026  1
  C  C97  1  0.80541549  0.77096158  0.30424109  1
  C  C98  1  0.79488428  0.87133450  0.34727416  1
  C  C99  1  0.77456565  0.87489786  0.43041962  1
  C  C100  1  0.76435611  0.77688141  0.47254738  1
  C  C101  1  0.77637892  0.67562918  0.42888300  1
  C  C102  1  0.79715978  0.67269419  0.34535219  1
  C  C103  1  0.74004678  0.64638697  0.57546674  1
  C  C104  1  0.71778521  0.62752118  0.65853527  1
  C  C105  1  0.70425270  0.72435824  0.70184515  1
  C  C106  1  0.67636622  0.73715892  0.78939918  1
  C  C107  1  0.74339283  0.75690967  0.55654374  1
  S  S108  1  0.26218519  0.43543551  0.50843806  1
  S  S109  1  0.21515251  0.15928479  0.35834035  1
  S  S110  1  0.43488400  0.73894615  0.51065807  1
  S  S111  1  0.16472897  0.78518377  0.35935802  1
  S  S112  1  0.56651965  0.23879410  0.49088016  1
  S  S113  1  0.83738489  0.28687989  0.64130654  1
  S  S114  1  0.76267803  0.56213361  0.49072534  1
  S  S115  1  0.71714390  0.83836091  0.64080594  1
  I  I116  1  0.26006048  0.99242781  0.97928895  1
  I  I117  1  0.25452749  0.54182187  0.99343277  1
  I  I118  1  0.76170899  0.97767346  0.02428075  1
  I  I119  1  0.75560997  0.51171986  0.99414130  1
  I  I120  1  0.95590409  0.24150324  0.01325018  1
  I  I121  1  0.98872640  0.74182027  0.99034760  1
  I  I122  1  0.44190221  0.25875659  0.99354372  1
  I  I123  1  0.50277862  0.75962517  0.98869787  1
  I  I124  1  0.99784643  0.99283066  0.79586396  1
  I  I125  1  0.03046304  0.99684027  0.19048725  1
  I  I126  1  0.02063624  0.44046877  0.80333722  1
  I  I127  1  0.00444028  0.51000600  0.19620691  1
  I  I128  1  0.56755103  0.02602570  0.80653941  1
  I  I129  1  0.50132128  0.01057037  0.19685311  1
  I  I130  1  0.49026982  0.49892353  0.80571449  1
  I  I131  1  0.51179866  0.48328483  0.19995217  1
  N  N132  1  0.22798733  0.23257839  0.83562405  1
  N  N133  1  0.28570821  0.22698602  0.16355320  1
  N  N134  1  0.22940462  0.76459293  0.84071031  1
  N  N135  1  0.23092764  0.71759251  0.16044581  1
  N  N136  1  0.76290842  0.28243446  0.16744160  1
  N  N137  1  0.77196692  0.21972306  0.83750573  1
  N  N138  1  0.72392461  0.76000354  0.16327556  1
  N  N139  1  0.76987865  0.77413033  0.84343872  1
