# generated using pymatgen
data_H14PbC12S2(I2N)2
_symmetry_space_group_name_H-M   'P 1'
_cell_length_a   12.22861717
_cell_length_b   12.09010414
_cell_length_c   17.15311888
_cell_angle_alpha   91.51495520
_cell_angle_beta   89.09958721
_cell_angle_gamma   89.32019496
_symmetry_Int_Tables_number   1
_chemical_formula_structural   H14PbC12S2(I2N)2
_chemical_formula_sum   'H56 Pb4 C48 S8 I16 N8'
_cell_volume   2534.61644720
_cell_formula_units_Z   4
loop_
 _symmetry_equiv_pos_site_id
 _symmetry_equiv_pos_as_xyz
  1  'x, y, z'
loop_
 _atom_site_type_symbol
 _atom_site_label
 _atom_site_symmetry_multiplicity
 _atom_site_fract_x
 _atom_site_fract_y
 _atom_site_fract_z
 _atom_site_occupancy
  H  H0  1  0.29551555  0.17271281  0.82759390  1
  H  H1  1  0.24051881  0.25721573  0.89584119  1
  H  H2  1  0.33020609  0.30765461  0.83004610  1
  H  H3  1  0.10396537  0.22719632  0.80558307  1
  H  H4  1  0.14851626  0.36639214  0.80058712  1
  H  H5  1  0.20762219  0.43543724  0.66706563  1
  H  H6  1  0.24883389  0.45905292  0.50628161  1
  H  H7  1  0.35247159  0.13275500  0.19990721  1
  H  H8  1  0.39665833  0.27206784  0.19471729  1
  H  H9  1  0.17067944  0.19110136  0.16999684  1
  H  H10  1  0.20525249  0.32600730  0.17226805  1
  H  H11  1  0.26041560  0.24119119  0.10427111  1
  H  H12  1  0.29255480  0.06405073  0.33317936  1
  H  H13  1  0.25108168  0.04049834  0.49385727  1
  H  H14  1  0.16967238  0.70700643  0.83226052  1
  H  H15  1  0.25689828  0.75923011  0.89634176  1
  H  H16  1  0.30027600  0.66324904  0.82912074  1
  H  H17  1  0.22595384  0.89604462  0.80607697  1
  H  H18  1  0.36358235  0.84670694  0.79755191  1
  H  H19  1  0.43219594  0.79013936  0.66222408  1
  H  H20  1  0.45687886  0.75013402  0.50042947  1
  H  H21  1  0.13627234  0.65595542  0.20182907  1
  H  H22  1  0.27367026  0.60620305  0.19314715  1
  H  H23  1  0.19967402  0.83934169  0.17083362  1
  H  H24  1  0.33049818  0.79578035  0.16812496  1
  H  H25  1  0.24381343  0.74377364  0.10350914  1
  H  H26  1  0.06776895  0.71072221  0.33753153  1
  H  H27  1  0.04313965  0.74980708  0.49938566  1
  H  H28  1  0.82452172  0.19926978  0.16958003  1
  H  H29  1  0.74153078  0.25546179  0.10482889  1
  H  H30  1  0.69201139  0.16408627  0.16901925  1
  H  H31  1  0.77205437  0.39415482  0.19795958  1
  H  H32  1  0.63410841  0.35033447  0.20515671  1
  H  H33  1  0.56512406  0.29125290  0.34014870  1
  H  H34  1  0.54300284  0.25046750  0.50044720  1
  H  H35  1  0.86520512  0.15163483  0.79543169  1
  H  H36  1  0.72744603  0.10743743  0.80254369  1
  H  H37  1  0.80713881  0.33778033  0.83086806  1
  H  H38  1  0.67444471  0.30283364  0.82988189  1
  H  H39  1  0.75691978  0.24688523  0.89516881  1
  H  H40  1  0.93452422  0.20918807  0.66000758  1
  H  H41  1  0.95672875  0.24930250  0.49952644  1
  H  H42  1  0.79307447  0.82279078  0.17158269  1
  H  H43  1  0.73937691  0.73809613  0.10471146  1
  H  H44  1  0.83037220  0.68748077  0.16855247  1
  H  H45  1  0.60296114  0.77107260  0.19854638  1
  H  H46  1  0.64853015  0.63120725  0.20245817  1
  H  H47  1  0.70732746  0.56225049  0.33571192  1
  H  H48  1  0.74888213  0.54046345  0.49563924  1
  H  H49  1  0.85115460  0.86786923  0.79775425  1
  H  H50  1  0.89738634  0.72819128  0.80129687  1
  H  H51  1  0.66983673  0.81092447  0.83163699  1
  H  H52  1  0.70733024  0.67558174  0.82826212  1
  H  H53  1  0.76106548  0.75995123  0.89530011  1
  H  H54  1  0.79275303  0.93718654  0.66444639  1
  H  H55  1  0.75124438  0.95910280  0.50436728  1
  Pb  Pb56  1  0.02051492  0.00277980  0.00781377  1
  Pb  Pb57  1  0.97564424  0.50173449  0.00271523  1
  Pb  Pb58  1  0.52607066  0.99334779  0.99731755  1
  Pb  Pb59  1  0.47568639  0.49406620  0.99192335  1
  C  C60  1  0.17120557  0.28010518  0.78642302  1
  C  C61  1  0.19656958  0.26549022  0.70160961  1
  C  C62  1  0.21126567  0.34811977  0.64968592  1
  C  C63  1  0.23144749  0.30821296  0.57133097  1
  C  C64  1  0.24922089  0.36881224  0.50362288  1
  C  C65  1  0.26750866  0.31002926  0.43360598  1
  C  C66  1  0.30377834  0.23395459  0.29860399  1
  C  C67  1  0.32952880  0.21902754  0.21387812  1
  C  C68  1  0.28884422  0.15137146  0.35053102  1
  C  C69  1  0.26845274  0.19133298  0.42883299  1
  C  C70  1  0.25064508  0.13072604  0.49652562  1
  C  C71  1  0.23239655  0.18950994  0.56654023  1
  C  C72  1  0.27815792  0.82591087  0.78588997  1
  C  C73  1  0.26387969  0.79959404  0.70167717  1
  C  C74  1  0.34608625  0.78555081  0.64721239  1
  C  C75  1  0.30713084  0.76681329  0.56977720  1
  C  C76  1  0.36771722  0.75018823  0.50013213  1
  C  C77  1  0.31021272  0.73367846  0.43144634  1
  C  C78  1  0.23604503  0.70171673  0.29797074  1
  C  C79  1  0.22174252  0.67640245  0.21360711  1
  C  C80  1  0.15390492  0.71513976  0.35252119  1
  C  C81  1  0.19288367  0.73321268  0.43001397  1
  C  C82  1  0.13230647  0.74969715  0.49967468  1
  C  C83  1  0.18980116  0.76635263  0.56833959  1
  C  C84  1  0.71916829  0.32640681  0.21660237  1
  C  C85  1  0.73320455  0.30164936  0.30034569  1
  C  C86  1  0.65161195  0.28729364  0.35450246  1
  C  C87  1  0.69162405  0.26766553  0.43104371  1
  C  C88  1  0.63219195  0.25025174  0.50025561  1
  C  C89  1  0.69070421  0.23274440  0.56795522  1
  C  C90  1  0.76638929  0.19913281  0.69982236  1
  C  C91  1  0.78013730  0.17524661  0.78374334  1
  C  C92  1  0.84806029  0.21298955  0.64561200  1
  C  C93  1  0.80810619  0.23208922  0.56896519  1
  C  C94  1  0.86754503  0.24941262  0.49972477  1
  C  C95  1  0.80901530  0.26699603  0.43202475  1
  C  C96  1  0.67079357  0.71717393  0.21590457  1
  C  C97  1  0.69678450  0.73212292  0.29993837  1
  C  C98  1  0.71144336  0.64979546  0.35208002  1
  C  C99  1  0.73178324  0.69048455  0.42963624  1
  C  C100  1  0.74925191  0.63069311  0.49745350  1
  C  C101  1  0.76722440  0.69038262  0.56654496  1
  C  C102  1  0.80325315  0.76724110  0.70008528  1
  C  C103  1  0.82925793  0.78185213  0.78413750  1
  C  C104  1  0.78865283  0.84967261  0.64799359  1
  C  C105  1  0.76835710  0.80907222  0.57038941  1
  C  C106  1  0.75088598  0.86887549  0.50255398  1
  C  C107  1  0.73291279  0.80916728  0.43344705  1
  S  S108  1  0.29437441  0.36609129  0.34279735  1
  S  S109  1  0.20575382  0.13340188  0.65735049  1
  S  S110  1  0.36629805  0.70904130  0.33856239  1
  S  S111  1  0.13365277  0.79174089  0.66111476  1
  S  S112  1  0.63589976  0.20736350  0.65990791  1
  S  S113  1  0.86376564  0.29298387  0.34013634  1
  S  S114  1  0.79337239  0.63496250  0.65705265  1
  S  S115  1  0.70671972  0.86448406  0.34289185  1
  I  I116  1  0.27216750  0.92938474  0.99630678  1
  I  I117  1  0.22732578  0.57572613  0.00290143  1
  I  I118  1  0.77102036  0.07706102  0.98874618  1
  I  I119  1  0.72839771  0.42811394  0.01218665  1
  I  I120  1  0.07539065  0.25845478  0.99902877  1
  I  I121  1  0.92648707  0.75914654  0.99204725  1
  I  I122  1  0.42829426  0.23860268  0.00118337  1
  I  I123  1  0.57306835  0.73763771  0.00810804  1
  I  I124  1  0.03606792  0.00553117  0.82406017  1
  I  I125  1  0.05188266  0.01261271  0.19831828  1
  I  I126  1  0.94459508  0.49070968  0.81599019  1
  I  I127  1  0.95793385  0.52381681  0.19074377  1
  I  I128  1  0.54455979  0.97355394  0.80916663  1
  I  I129  1  0.55626705  0.00809792  0.18390455  1
  I  I130  1  0.44735131  0.48491599  0.80130581  1
  I  I131  1  0.46135582  0.49378925  0.17585276  1
  N  N132  1  0.26620274  0.25205936  0.83759885  1
  N  N133  1  0.23468029  0.24663795  0.16247516  1
  N  N134  1  0.24929229  0.73214686  0.83841829  1
  N  N135  1  0.25097589  0.77057763  0.16152498  1
  N  N136  1  0.74646525  0.22976891  0.16222270  1
  N  N137  1  0.75239622  0.27228956  0.83768045  1
  N  N138  1  0.76516822  0.74364311  0.16228610  1
  N  N139  1  0.73512677  0.75471764  0.83774729  1
