# generated using pymatgen
data_H16PbC14S2(I2N)2
_symmetry_space_group_name_H-M   'P 1'
_cell_length_a   12.45666056
_cell_length_b   12.29986253
_cell_length_c   18.39079241
_cell_angle_alpha   86.75834943
_cell_angle_beta   88.54193919
_cell_angle_gamma   90.61049869
_symmetry_Int_Tables_number   1
_chemical_formula_structural   H16PbC14S2(I2N)2
_chemical_formula_sum   'H64 Pb4 C56 S8 I16 N8'
_cell_volume   2812.12320159
_cell_formula_units_Z   4
loop_
 _symmetry_equiv_pos_site_id
 _symmetry_equiv_pos_as_xyz
  1  'x, y, z'
loop_
 _atom_site_type_symbol
 _atom_site_label
 _atom_site_symmetry_multiplicity
 _atom_site_fract_x
 _atom_site_fract_y
 _atom_site_fract_z
 _atom_site_occupancy
  H  H0  1  0.24395733  0.22458505  0.90625610  1
  H  H1  1  0.31582419  0.18321182  0.83488986  1
  H  H2  1  0.30350580  0.31666315  0.84936295  1
  H  H3  1  0.11390074  0.31573064  0.83028131  1
  H  H4  1  0.11878917  0.17247000  0.81938070  1
  H  H5  1  0.18521408  0.44660676  0.73384191  1
  H  H6  1  0.21684056  0.48585117  0.60142551  1
  H  H7  1  0.24483093  0.39179112  0.46547078  1
  H  H8  1  0.24789688  0.00363190  0.41074386  1
  H  H9  1  0.32756190  0.35392622  0.20566185  1
  H  H10  1  0.38822478  0.23488731  0.17432929  1
  H  H11  1  0.15494638  0.28673123  0.16512285  1
  H  H12  1  0.21788562  0.17779053  0.12898060  1
  H  H13  1  0.24646300  0.30491980  0.09825859  1
  H  H14  1  0.27547306  0.34870044  0.33969520  1
  H  H15  1  0.18600313  0.10045849  0.70570179  1
  H  H16  1  0.23410993  0.74194553  0.90545208  1
  H  H17  1  0.18252865  0.67848805  0.83613039  1
  H  H18  1  0.31654055  0.68186494  0.84738483  1
  H  H19  1  0.32314791  0.87912950  0.82861128  1
  H  H20  1  0.18206232  0.87688349  0.81571387  1
  H  H21  1  0.44932217  0.81895070  0.73480397  1
  H  H22  1  0.48587353  0.78933683  0.60424451  1
  H  H23  1  0.39164013  0.75807546  0.46909486  1
  H  H24  1  0.00878605  0.74853026  0.40700751  1
  H  H25  1  0.35348212  0.67319552  0.21316539  1
  H  H26  1  0.23575378  0.61092936  0.18217854  1
  H  H27  1  0.26960721  0.85090903  0.16495895  1
  H  H28  1  0.18255925  0.77305955  0.12153844  1
  H  H29  1  0.31359638  0.76493646  0.10343216  1
  H  H30  1  0.34886219  0.72764010  0.34428228  1
  H  H31  1  0.10762091  0.81592064  0.70158281  1
  H  H32  1  0.77000353  0.24606409  0.09683851  1
  H  H33  1  0.81893003  0.18233188  0.17151871  1
  H  H34  1  0.68669247  0.18198503  0.15819190  1
  H  H35  1  0.67821332  0.37954134  0.16395790  1
  H  H36  1  0.81952709  0.38167005  0.17894252  1
  H  H37  1  0.55093230  0.31405012  0.26152863  1
  H  H38  1  0.51327980  0.28074769  0.39406785  1
  H  H39  1  0.60711833  0.25061308  0.53190062  1
  H  H40  1  0.98964471  0.24806259  0.59384411  1
  H  H41  1  0.64546836  0.16995547  0.79494896  1
  H  H42  1  0.76359399  0.10992363  0.83032112  1
  H  H43  1  0.72674953  0.34881667  0.82614349  1
  H  H44  1  0.82138186  0.27814533  0.87253629  1
  H  H45  1  0.69203824  0.26358874  0.89715836  1
  H  H46  1  0.64923195  0.22145938  0.65837850  1
  H  H47  1  0.89216668  0.31800203  0.29580751  1
  H  H48  1  0.74753707  0.79128658  0.09457249  1
  H  H49  1  0.81204368  0.83049356  0.16758497  1
  H  H50  1  0.80745222  0.69779301  0.14769494  1
  H  H51  1  0.61716061  0.68443341  0.16949275  1
  H  H52  1  0.61540895  0.82716768  0.18361019  1
  H  H53  1  0.67841682  0.55350031  0.26557938  1
  H  H54  1  0.71342434  0.51317798  0.39607158  1
  H  H55  1  0.74667037  0.60571868  0.53138637  1
  H  H56  1  0.75294350  0.99301074  0.58878705  1
  H  H57  1  0.82429522  0.64153650  0.79022745  1
  H  H58  1  0.88470972  0.76117528  0.82072940  1
  H  H59  1  0.65049349  0.70749610  0.83518333  1
  H  H60  1  0.71517605  0.81548659  0.87055022  1
  H  H61  1  0.74094847  0.68866159  0.90015493  1
  H  H62  1  0.77339612  0.64738315  0.65713080  1
  H  H63  1  0.68282453  0.89917473  0.29572405  1
  Pb  Pb64  1  0.98324857  -0.00024839  0.01252511  1
  Pb  Pb65  1  1.00326402  0.50222487  0.00535573  1
  Pb  Pb66  1  0.49514266  0.01979401  0.00143273  1
  Pb  Pb67  1  0.49803874  0.51087360  0.99031861  1
  C  C68  1  0.16181736  0.25025017  0.80806105  1
  C  C69  1  0.18577709  0.27157838  0.72804414  1
  C  C70  1  0.19504701  0.37961519  0.69793261  1
  C  C71  1  0.21193317  0.40175776  0.62368282  1
  C  C72  1  0.22100429  0.31493355  0.57707569  1
  C  C73  1  0.23691998  0.31682503  0.49972537  1
  C  C74  1  0.24089457  0.21455411  0.47285956  1
  C  C75  1  0.25676104  0.18478440  0.39797327  1
  C  C76  1  0.25836675  0.07824907  0.37663108  1
  C  C77  1  0.28916462  0.21099859  0.27198086  1
  C  C78  1  0.31488039  0.26655057  0.19970243  1
  C  C79  1  0.27383655  0.26049581  0.33667762  1
  C  C80  1  0.21272459  0.20631578  0.60834975  1
  C  C81  1  0.19485150  0.18407658  0.68301259  1
  C  C82  1  0.25707213  0.83322180  0.80591583  1
  C  C83  1  0.27659523  0.81664537  0.72644748  1
  C  C84  1  0.38272116  0.81003326  0.69818014  1
  C  C85  1  0.40338811  0.79403343  0.62509274  1
  C  C86  1  0.31703009  0.78422952  0.57770914  1
  C  C87  1  0.31806963  0.76710410  0.50138275  1
  C  C88  1  0.21700256  0.76214767  0.47285613  1
  C  C89  1  0.18735622  0.74410288  0.39833440  1
  C  C90  1  0.08227742  0.73905550  0.37498179  1
  C  C91  1  0.21267339  0.70966144  0.27487378  1
  C  C92  1  0.26746421  0.68518918  0.20502687  1
  C  C93  1  0.26186488  0.72772371  0.33948087  1
  C  C94  1  0.21044653  0.79228227  0.60669869  1
  C  C95  1  0.18967109  0.80875282  0.68029445  1
  C  C96  1  0.74445537  0.33542691  0.19009668  1
  C  C97  1  0.72348916  0.31537721  0.27055757  1
  C  C98  1  0.61715316  0.30522197  0.29890751  1
  C  C99  1  0.59591930  0.28739317  0.37306501  1
  C  C100  1  0.68193628  0.27841890  0.42127523  1
  C  C101  1  0.68061678  0.26071017  0.49876913  1
  C  C102  1  0.78167523  0.25760034  0.52743757  1
  C  C103  1  0.81100367  0.24049246  0.60312860  1
  C  C104  1  0.91604642  0.23789542  0.62659458  1
  C  C105  1  0.78554738  0.20650922  0.72895523  1
  C  C106  1  0.73201247  0.18287308  0.80120243  1
  C  C107  1  0.73619611  0.22304948  0.66313047  1
  C  C108  1  0.78870305  0.28890882  0.39187100  1
  C  C109  1  0.81002470  0.30773967  0.31733585  1
  C  C110  1  0.66069777  0.75174145  0.19287654  1
  C  C111  1  0.68110249  0.72864138  0.27231331  1
  C  C112  1  0.68951332  0.62031589  0.30132689  1
  C  C113  1  0.70819824  0.59741745  0.37470166  1
  C  C114  1  0.71896894  0.68364139  0.42149764  1
  C  C115  1  0.73723704  0.68092565  0.49810513  1
  C  C116  1  0.74153027  0.78274842  0.52565356  1
  C  C117  1  0.75792012  0.81172252  0.60024111  1
  C  C118  1  0.76112971  0.91793276  0.62215724  1
  C  C119  1  0.78843138  0.78429549  0.72524950  1
  C  C120  1  0.81195221  0.72850359  0.79680837  1
  C  C121  1  0.77304999  0.73543512  0.66072776  1
  C  C122  1  0.70971083  0.79242260  0.39145855  1
  C  C123  1  0.69085100  0.81549304  0.31771968  1
  S  S124  1  0.28263699  0.07075275  0.28563520  1
  S  S125  1  0.22479220  0.11187392  0.54227069  1
  S  S126  1  0.07444440  0.71250625  0.28545816  1
  S  S127  1  0.11653541  0.77910637  0.53956390  1
  S  S128  1  0.92356379  0.21253786  0.71812023  1
  S  S129  1  0.88243710  0.27667783  0.45978326  1
  S  S130  1  0.78470006  0.92462922  0.71255697  1
  S  S131  1  0.72363510  0.88608556  0.45771096  1
  I  I132  1  0.23621205  0.04774476  0.02629334  1
  I  I133  1  0.25620954  0.43333169  0.98666427  1
  I  I134  1  0.73375462  0.94139075  0.98040893  1
  I  I135  1  0.75599391  0.56713899  0.01341421  1
  I  I136  1  0.94762104  0.25291060  0.97854707  1
  I  I137  1  0.06173699  0.75037052  0.02000753  1
  I  I138  1  0.57791621  0.26545128  0.00345816  1
  I  I139  1  0.43636444  0.76342931  0.99503381  1
  I  I140  1  0.99616360  0.97769604  0.84386750  1
  I  I141  1  0.93233624  0.00142077  0.18827711  1
  I  I142  1  0.02750748  0.54127300  0.83236517  1
  I  I143  1  0.03606954  0.45452684  0.17807543  1
  I  I144  1  0.46352049  0.05454854  0.82698306  1
  I  I145  1  0.53223220  0.03496810  0.17224758  1
  I  I146  1  0.51428842  0.54375243  0.81239093  1
  I  I147  1  0.48546634  0.50504349  0.15962684  1
  N  N148  1  0.26256174  0.24330979  0.85180163  1
  N  N149  1  0.22751398  0.25664853  0.14562915  1
  N  N150  1  0.24712516  0.72688669  0.85112220  1
  N  N151  1  0.25749979  0.77475877  0.14616218  1
  N  N152  1  0.75617414  0.23036691  0.15212514  1
  N  N153  1  0.74455474  0.27471329  0.85139576  1
  N  N154  1  0.76399658  0.76843266  0.14839924  1
  N  N155  1  0.72325925  0.73696143  0.85327465  1
