# generated using pymatgen
data_H15PbC12I4N2F
_symmetry_space_group_name_H-M   'P 1'
_cell_length_a   12.42476127
_cell_length_b   12.48347912
_cell_length_c   14.45508379
_cell_angle_alpha   87.67590498
_cell_angle_beta   88.63923465
_cell_angle_gamma   90.53429836
_symmetry_Int_Tables_number   1
_chemical_formula_structural   H15PbC12I4N2F
_chemical_formula_sum   'H60 Pb4 C48 I16 N8 F4'
_cell_volume   2239.45010076
_cell_formula_units_Z   4
loop_
 _symmetry_equiv_pos_site_id
 _symmetry_equiv_pos_as_xyz
  1  'x, y, z'
loop_
 _atom_site_type_symbol
 _atom_site_label
 _atom_site_symmetry_multiplicity
 _atom_site_fract_x
 _atom_site_fract_y
 _atom_site_fract_z
 _atom_site_occupancy
  H  H0  1  0.33199307  0.32194876  0.82187522  1
  H  H1  1  0.27600727  0.23285708  0.89777278  1
  H  H2  1  0.34575337  0.18904759  0.80654068  1
  H  H3  1  0.15078511  0.16975679  0.79060260  1
  H  H4  1  0.13866632  0.31143067  0.80094456  1
  H  H5  1  0.21662028  0.43900019  0.67683566  1
  H  H6  1  0.29557784  0.39641985  0.35656187  1
  H  H7  1  0.36679244  0.18011677  0.19989166  1
  H  H8  1  0.37184317  0.32086600  0.21735519  1
  H  H9  1  0.24562165  0.29282805  0.10495800  1
  H  H10  1  0.17107486  0.32027789  0.19819209  1
  H  H11  1  0.18268124  0.19256277  0.16412872  1
  H  H12  1  0.29049973  0.05477828  0.32265160  1
  H  H13  1  0.24472957  0.02308618  0.48930209  1
  H  H14  1  0.20888114  0.09559491  0.64540073  1
  H  H15  1  0.32112143  0.66068892  0.81725600  1
  H  H16  1  0.23851473  0.71345415  0.89486538  1
  H  H17  1  0.18637758  0.65105614  0.80572962  1
  H  H18  1  0.17379196  0.84571865  0.78559298  1
  H  H19  1  0.31607349  0.85584324  0.79719129  1
  H  H20  1  0.44213166  0.79112827  0.67409261  1
  H  H21  1  0.39459434  0.70790625  0.35852519  1
  H  H22  1  0.17291808  0.63525420  0.20432274  1
  H  H23  1  0.31420533  0.62780321  0.22277514  1
  H  H24  1  0.28470499  0.75647873  0.10319514  1
  H  H25  1  0.32177942  0.82545722  0.19322945  1
  H  H26  1  0.19205122  0.82153248  0.16312073  1
  H  H27  1  0.05052347  0.70471872  0.32384275  1
  H  H28  1  0.02147585  0.75058980  0.48757857  1
  H  H29  1  0.09654788  0.78754930  0.64168851  1
  H  H30  1  0.67606523  0.15973677  0.17940763  1
  H  H31  1  0.76759661  0.21348179  0.10326285  1
  H  H32  1  0.80845992  0.14610884  0.19789562  1
  H  H33  1  0.82862162  0.34232582  0.20614170  1
  H  H34  1  0.68625625  0.35286865  0.19326099  1
  H  H35  1  0.55861448  0.28395981  0.31964387  1
  H  H36  1  0.60453432  0.20447349  0.64137887  1
  H  H37  1  0.82424296  0.13668758  0.80184496  1
  H  H38  1  0.68290684  0.12735655  0.78241650  1
  H  H39  1  0.70626979  0.25615966  0.89197895  1
  H  H40  1  0.67968100  0.32767058  0.79600861  1
  H  H41  1  0.80680623  0.31963124  0.83331582  1
  H  H42  1  0.94842326  0.20821527  0.67740724  1
  H  H43  1  0.97849526  0.25001896  0.50999454  1
  H  H44  1  0.90397085  0.28349297  0.35257059  1
  H  H45  1  0.82963595  0.69335858  0.17216595  1
  H  H46  1  0.76745375  0.78160154  0.10356249  1
  H  H47  1  0.83679105  0.82600878  0.19231238  1
  H  H48  1  0.64180578  0.82855403  0.22019707  1
  H  H49  1  0.63812230  0.68700835  0.20633607  1
  H  H50  1  0.71211662  0.56064483  0.32714272  1
  H  H51  1  0.79789904  0.60363265  0.64357615  1
  H  H52  1  0.86425477  0.82033455  0.80069168  1
  H  H53  1  0.86886915  0.67988732  0.78325510  1
  H  H54  1  0.73611948  0.70391136  0.89480997  1
  H  H55  1  0.66630433  0.68124130  0.80069526  1
  H  H56  1  0.67897322  0.80718497  0.83857454  1
  H  H57  1  0.79707569  0.94545575  0.67768695  1
  H  H58  1  0.75421759  0.97678204  0.51248118  1
  H  H59  1  0.71339974  0.90406519  0.35893400  1
  Pb  Pb60  1  -0.00841677  0.99888651  0.00033241  1
  Pb  Pb61  1  0.00990954  0.49653336  0.00544523  1
  Pb  Pb62  1  0.49126384  1.00725147  0.99742565  1
  Pb  Pb63  1  0.51166590  0.50716237  1.00467032  1
  C  C64  1  0.18981259  0.24772461  0.77425129  1
  C  C65  1  0.21236210  0.26380755  0.67209513  1
  C  C66  1  0.22586491  0.36977866  0.63390538  1
  C  C67  1  0.24728059  0.38453288  0.54085433  1
  C  C68  1  0.25739146  0.29872572  0.48029841  1
  C  C69  1  0.28268106  0.31492089  0.38496758  1
  C  C70  1  0.29377064  0.22821614  0.32904416  1
  C  C71  1  0.32268577  0.24762446  0.22838341  1
  C  C72  1  0.27910432  0.12238174  0.36725944  1
  C  C73  1  0.25438758  0.10470656  0.46008264  1
  C  C74  1  0.24314223  0.19188947  0.51960626  1
  C  C75  1  0.22030192  0.17688970  0.61591291  1
  C  C76  1  0.25076728  0.80688730  0.77034859  1
  C  C77  1  0.26597072  0.78940110  0.66879408  1
  C  C78  1  0.37203490  0.78012905  0.63143175  1
  C  C79  1  0.38561769  0.75848782  0.53969270  1
  C  C80  1  0.29842240  0.74519836  0.47964209  1
  C  C81  1  0.31311023  0.71949648  0.38587329  1
  C  C82  1  0.22500345  0.70588335  0.33052000  1
  C  C83  1  0.24248693  0.67764953  0.23145668  1
  C  C84  1  0.11922810  0.71780356  0.36780211  1
  C  C85  1  0.10299588  0.74272470  0.45903338  1
  C  C86  1  0.19158278  0.75673853  0.51788027  1
  C  C87  1  0.17788178  0.77907947  0.61285345  1
  C  C88  1  0.75059264  0.30323098  0.22267671  1
  C  C89  1  0.73469988  0.28338522  0.32524486  1
  C  C90  1  0.62845061  0.27330972  0.36308086  1
  C  C91  1  0.61453955  0.25249081  0.45639770  1
  C  C92  1  0.70151911  0.24030620  0.51740082  1
  C  C93  1  0.68618562  0.21634719  0.61317712  1
  C  C94  1  0.77394772  0.20543180  0.66991527  1
  C  C95  1  0.75523932  0.17790028  0.77101686  1
  C  C96  1  0.87997565  0.21873270  0.63216592  1
  C  C97  1  0.89675845  0.24124645  0.53876136  1
  C  C98  1  0.80854066  0.25219845  0.47847320  1
  C  C99  1  0.82259790  0.27357490  0.38188052  1
  C  C100  1  0.68598257  0.75361935  0.23186078  1
  C  C101  1  0.71240317  0.73602797  0.33208827  1
  C  C102  1  0.72476365  0.62991347  0.36929339  1
  C  C103  1  0.74902116  0.61519687  0.46094692  1
  C  C104  1  0.76276045  0.70108703  0.52085799  1
  C  C105  1  0.78716860  0.68511694  0.61541910  1
  C  C106  1  0.79775269  0.77186137  0.67133509  1
  C  C107  1  0.82097989  0.75259549  0.77199674  1
  C  C108  1  0.78567222  0.87772572  0.63344211  1
  C  C109  1  0.76260400  0.89521209  0.54131843  1
  C  C110  1  0.74982959  0.80794413  0.48233532  1
  C  C111  1  0.72446931  0.82283224  0.38765153  1
  I  I112  1  0.23993696  0.04316454  0.03022512  1
  I  I113  1  0.26155330  0.46774864  -0.00820764  1
  I  I114  1  0.74042608  -0.03950538  0.97532176  1
  I  I115  1  0.76149515  0.54840413  0.01627559  1
  I  I116  1  0.95132390  0.25087743  0.98437982  1
  I  I117  1  1.04272708  0.74922606  0.02112271  1
  I  I118  1  0.53737252  0.25595214  0.00829087  1
  I  I119  1  0.45972214  0.75626342  -0.01597584  1
  I  I120  1  0.01375483  0.99447084  0.78527682  1
  I  I121  1  0.94682697  0.99485166  0.22737978  1
  I  I122  1  0.02413425  0.52349862  0.78312302  1
  I  I123  1  0.02517709  0.45775219  0.22628157  1
  I  I124  1  0.46848844  0.03806217  0.77532233  1
  I  I125  1  0.50977826  -0.00021953  0.21772934  1
  I  I126  1  0.52961972  0.50759523  0.77672789  1
  I  I127  1  0.49871880  0.50625736  0.22114105  1
  N  N128  1  0.29251450  0.24883731  0.82820139  1
  N  N129  1  0.22392491  0.26377636  0.17107587  1
  N  N130  1  0.24952356  0.70118923  0.82506112  1
  N  N131  1  0.26126187  0.77699957  0.16949059  1
  N  N132  1  0.74996303  0.19912960  0.17297641  1
  N  N133  1  0.73618935  0.27706251  0.82583624  1
  N  N134  1  0.78675199  0.76357496  0.17165393  1
  N  N135  1  0.71848504  0.73596583  0.82929656  1
  F  F136  1  0.25938621  0.48629106  0.50386609  1
  F  F137  1  0.48726588  0.74911400  0.50362476  1
  F  F138  1  0.51281362  0.24324177  0.49343803  1
  F  F139  1  0.75931123  0.51347679  0.49749523  1
