# generated using pymatgen
data_H16PbC11S(I2N)2
_symmetry_space_group_name_H-M   'P 1'
_cell_length_a   12.48307840
_cell_length_b   12.31269616
_cell_length_c   15.45249777
_cell_angle_alpha   92.74306292
_cell_angle_beta   91.16637802
_cell_angle_gamma   90.05162511
_symmetry_Int_Tables_number   1
_chemical_formula_structural   H16PbC11S(I2N)2
_chemical_formula_sum   'H64 Pb4 C44 S4 I16 N8'
_cell_volume   2371.83724667
_cell_formula_units_Z   4
loop_
 _symmetry_equiv_pos_site_id
 _symmetry_equiv_pos_as_xyz
  1  'x, y, z'
loop_
 _atom_site_type_symbol
 _atom_site_label
 _atom_site_symmetry_multiplicity
 _atom_site_fract_x
 _atom_site_fract_y
 _atom_site_fract_z
 _atom_site_occupancy
  H  H0  1  0.27239347  0.27745724  0.86858162  1
  H  H1  1  0.17549203  0.27808165  0.79122927  1
  H  H2  1  0.16465254  0.20056205  0.87509116  1
  H  H3  1  0.32098092  0.09446695  0.83594461  1
  H  H4  1  0.21787718  0.08425351  0.75406624  1
  H  H5  1  0.40857367  0.24405359  0.75618310  1
  H  H6  1  0.41210306  0.11417671  0.70512124  1
  H  H7  1  0.32820894  0.39345047  0.68585432  1
  H  H8  1  0.26707107  0.47054228  0.54805911  1
  H  H9  1  0.20437308  0.42038415  0.37392738  1
  H  H10  1  0.08936311  0.19571044  0.23596841  1
  H  H11  1  0.14059887  0.33079276  0.23152952  1
  H  H12  1  0.26383733  0.12459568  0.19784763  1
  H  H13  1  0.20981831  0.20556348  0.12470661  1
  H  H14  1  0.31212431  0.24953383  0.18889075  1
  H  H15  1  0.28843185  0.06680653  0.57589585  1
  H  H16  1  0.27246483  0.72792783  0.86547036  1
  H  H17  1  0.27679085  0.80884760  0.78059804  1
  H  H18  1  0.20647930  0.84434951  0.86883437  1
  H  H19  1  0.09398768  0.67882595  0.83826163  1
  H  H20  1  0.08076623  0.77830452  0.75834453  1
  H  H21  1  0.23408491  0.58164092  0.74973716  1
  H  H22  1  0.10675571  0.58124773  0.69980647  1
  H  H23  1  0.38581016  0.66231743  0.68326559  1
  H  H24  1  0.46595860  0.72736340  0.54909863  1
  H  H25  1  0.42157586  0.78880780  0.37811612  1
  H  H26  1  0.20810073  0.91226289  0.25333551  1
  H  H27  1  0.33859598  0.85671298  0.24162306  1
  H  H28  1  0.13613247  0.73033828  0.20029331  1
  H  H29  1  0.20500433  0.80182963  0.13045466  1
  H  H30  1  0.25980262  0.69439703  0.17532610  1
  H  H31  1  0.06681552  0.70420356  0.57677338  1
  H  H32  1  0.71919662  0.24676289  0.13829898  1
  H  H33  1  0.71413705  0.33704892  0.22387554  1
  H  H34  1  0.78711083  0.36162971  0.13737358  1
  H  H35  1  0.90099607  0.20663563  0.16012374  1
  H  H36  1  0.90811901  0.30178349  0.25085492  1
  H  H37  1  0.75994648  0.10104532  0.23503034  1
  H  H38  1  0.88909744  0.09882180  0.28232703  1
  H  H39  1  0.61004021  0.17353364  0.31367229  1
  H  H40  1  0.53217216  0.23520032  0.45412945  1
  H  H41  1  0.57950089  0.30116631  0.62847530  1
  H  H42  1  0.79922714  0.41704884  0.76596832  1
  H  H43  1  0.66446296  0.36933837  0.76887647  1
  H  H44  1  0.86269465  0.24156286  0.80298857  1
  H  H45  1  0.77701858  0.29378205  0.87557564  1
  H  H46  1  0.73603946  0.19127075  0.80565326  1
  H  H47  1  0.93075048  0.21081683  0.42095031  1
  H  H48  1  0.76356028  0.71378463  0.13448551  1
  H  H49  1  0.67460393  0.70900430  0.21373231  1
  H  H50  1  0.65221305  0.78558912  0.12898723  1
  H  H51  1  0.80744735  0.89918202  0.16400710  1
  H  H52  1  0.70893930  0.90793068  0.24586895  1
  H  H53  1  0.90774450  0.75949367  0.24807498  1
  H  H54  1  0.90418095  0.89059617  0.29729676  1
  H  H55  1  0.83260982  0.60677820  0.31686920  1
  H  H56  1  0.77010896  0.52803577  0.45209282  1
  H  H57  1  0.70118567  0.57710497  0.62268800  1
  H  H58  1  0.57555925  0.79677309  0.75287111  1
  H  H59  1  0.63233149  0.66516231  0.76179287  1
  H  H60  1  0.73415192  0.88124180  0.80307699  1
  H  H61  1  0.69617708  0.78883159  0.87213386  1
  H  H62  1  0.80196979  0.76257464  0.80926431  1
  H  H63  1  0.78526765  0.93243108  0.42503418  1
  Pb  Pb64  1  0.98808019  0.99328096  0.97770396  1
  Pb  Pb65  1  0.00928117  0.49839320  -0.00028919  1
  Pb  Pb66  1  0.51087974  0.01458758  0.00083727  1
  Pb  Pb67  1  0.49419813  0.50256247  0.00974532  1
  C  C68  1  0.27860169  0.13840473  0.78535884  1
  C  C69  1  0.35783608  0.18183002  0.72182370  1
  C  C70  1  0.31105560  0.22581574  0.63987834  1
  C  C71  1  0.30319201  0.33921440  0.63119248  1
  C  C72  1  0.26998110  0.38265861  0.55397130  1
  C  C73  1  0.24291398  0.31239329  0.48241353  1
  C  C74  1  0.21269889  0.33797084  0.39592049  1
  C  C75  1  0.19461459  0.24774249  0.34238595  1
  C  C76  1  0.15975539  0.24783115  0.24995712  1
  C  C77  1  0.24777121  0.19802620  0.49222481  1
  C  C78  1  0.28175246  0.15462516  0.57014142  1
  C  C79  1  0.13487354  0.71796536  0.78570874  1
  C  C80  1  0.17496396  0.63426958  0.71835970  1
  C  C81  1  0.22157844  0.68100057  0.63890336  1
  C  C82  1  0.33391714  0.68941031  0.63066985  1
  C  C83  1  0.37910555  0.72378786  0.55520318  1
  C  C84  1  0.31200199  0.75038119  0.48510667  1
  C  C85  1  0.33975395  0.78012561  0.40001655  1
  C  C86  1  0.25235137  0.79721191  0.34754680  1
  C  C87  1  0.25598340  0.83787401  0.25876879  1
  C  C88  1  0.19877364  0.74500886  0.49477211  1
  C  C89  1  0.15361072  0.71082718  0.57098260  1
  C  C90  1  0.85689594  0.24136566  0.21567464  1
  C  C91  1  0.81927357  0.15149319  0.27242307  1
  C  C92  1  0.77472714  0.19036864  0.35821981  1
  C  C93  1  0.66275829  0.19810548  0.36840583  1
  C  C94  1  0.61889055  0.23129790  0.44707416  1
  C  C95  1  0.68719680  0.25824198  0.51841715  1
  C  C96  1  0.66099600  0.29116953  0.60545045  1
  C  C97  1  0.74927896  0.30952122  0.65818935  1
  C  C98  1  0.74656146  0.34677279  0.75119234  1
  C  C99  1  0.80016467  0.25160376  0.50754959  1
  C  C100  1  0.84404753  0.21768325  0.42812943  1
  C  C101  1  0.76987975  0.85517962  0.21574208  1
  C  C102  1  0.85415992  0.81884418  0.28073450  1
  C  C103  1  0.81161396  0.77381109  0.36222862  1
  C  C104  1  0.80636274  0.66021957  0.37069746  1
  C  C105  1  0.77274176  0.61598061  0.44644897  1
  C  C106  1  0.74309640  0.68567408  0.51672986  1
  C  C107  1  0.70983361  0.65978497  0.60145350  1
  C  C108  1  0.68821595  0.74993056  0.65364036  1
  C  C109  1  0.64903512  0.74871792  0.74394191  1
  C  C110  1  0.74652522  0.80018201  0.50726178  1
  C  C111  1  0.78070200  0.84441371  0.43073766  1
  S  S112  1  0.21123034  0.12665537  0.39608730  1
  S  S113  1  0.13134608  0.77996367  0.40055752  1
  S  S114  1  0.86939148  0.28845711  0.60323308  1
  S  S115  1  0.70638677  0.87118337  0.60105739  1
  I  I116  1  0.25331802  0.95796928  -0.00039541  1
  I  I117  1  0.25066034  0.59148608  0.99859179  1
  I  I118  1  0.75586051  0.08636614  0.01876559  1
  I  I119  1  0.75263591  0.45282364  0.99087988  1
  I  I120  1  0.05872637  0.24838723  0.01906115  1
  I  I121  1  0.91445071  0.74742263  0.98469415  1
  I  I122  1  0.41504412  0.26074524  0.01109531  1
  I  I123  1  0.55118386  0.76119437  0.98137523  1
  I  I124  1  0.98343489  0.00430273  0.77343842  1
  I  I125  1  0.03715226  0.98849322  0.17998137  1
  I  I126  1  0.02209857  0.41723828  0.79656157  1
  I  I127  1  0.01921588  0.53397882  0.20545534  1
  I  I128  1  0.58699799  0.03597312  0.79655229  1
  I  I129  1  0.49717385  0.00962849  0.20344968  1
  I  I130  1  0.47957354  0.49318994  0.80483893  1
  I  I131  1  0.54810798  0.52784714  0.21802413  1
  N  N132  1  0.21954892  0.22859143  0.83167697  1
  N  N133  1  0.24275005  0.20409191  0.18752604  1
  N  N134  1  0.22807411  0.77909251  0.82689368  1
  N  N135  1  0.21150903  0.76105556  0.18766551  1
  N  N136  1  0.76365821  0.30117330  0.17803334  1
  N  N137  1  0.78305273  0.26140481  0.81221970  1
  N  N138  1  0.71170257  0.76047968  0.17187067  1
  N  N139  1  0.72729676  0.79782215  0.81047751  1
