# generated using pymatgen
data_H14PbC10S(I2N)2
_symmetry_space_group_name_H-M   'P 1'
_cell_length_a   13.61812666
_cell_length_b   13.49919276
_cell_length_c   12.47721994
_cell_angle_alpha   90.25668623
_cell_angle_beta   89.81842903
_cell_angle_gamma   88.20954305
_symmetry_Int_Tables_number   1
_chemical_formula_structural   H14PbC10S(I2N)2
_chemical_formula_sum   'H56 Pb4 C40 S4 I16 N8'
_cell_volume   2292.57829504
_cell_formula_units_Z   4
loop_
 _symmetry_equiv_pos_site_id
 _symmetry_equiv_pos_as_xyz
  1  'x, y, z'
loop_
 _atom_site_type_symbol
 _atom_site_label
 _atom_site_symmetry_multiplicity
 _atom_site_fract_x
 _atom_site_fract_y
 _atom_site_fract_z
 _atom_site_occupancy
  H  H0  1  0.27997155  0.10938100  0.87680017  1
  H  H1  1  0.35509740  0.11077188  0.77139073  1
  H  H2  1  0.30091581  0.21736775  0.81865620  1
  H  H3  1  0.13670211  0.14713467  0.78039515  1
  H  H4  1  0.20074764  0.04435652  0.72170392  1
  H  H5  1  0.20083775  0.33380657  0.68149854  1
  H  H6  1  0.20856179  0.46773831  0.51110641  1
  H  H7  1  0.21336690  0.48418231  0.31162852  1
  H  H8  1  0.21144357  0.33786778  0.19524629  1
  H  H9  1  0.14173181  0.14345350  0.20424508  1
  H  H10  1  0.21041888  0.07267836  0.29821372  1
  H  H11  1  0.30419123  0.20144455  0.13479492  1
  H  H12  1  0.28216030  0.08130285  0.11962336  1
  H  H13  1  0.36121826  0.11847039  0.21449066  1
  H  H14  1  0.14320083  0.70397807  0.88383804  1
  H  H15  1  0.13039685  0.63211055  0.77768512  1
  H  H16  1  0.24154075  0.68032301  0.80506765  1
  H  H17  1  0.15071078  0.85020156  0.78919648  1
  H  H18  1  0.05493899  0.78209852  0.73203943  1
  H  H19  1  0.33926983  0.79317059  0.68420229  1
  H  H20  1  0.47162944  0.79028754  0.51374717  1
  H  H21  1  0.48913003  0.78893860  0.31436621  1
  H  H22  1  0.34346554  0.79300545  0.19859471  1
  H  H23  1  0.15395803  0.85673420  0.20126984  1
  H  H24  1  0.08126727  0.79889485  0.29912092  1
  H  H25  1  0.21378372  0.67572388  0.15813444  1
  H  H26  1  0.10328042  0.71812839  0.11886896  1
  H  H27  1  0.11008788  0.64525534  0.22329509  1
  H  H28  1  0.89989238  0.22708004  0.12245484  1
  H  H29  1  0.88852023  0.15291223  0.22864957  1
  H  H30  1  0.78892855  0.21097402  0.17491982  1
  H  H31  1  0.85173890  0.37286535  0.21843300  1
  H  H32  1  0.95608594  0.31309761  0.27718437  1
  H  H33  1  0.66893389  0.30325701  0.31480989  1
  H  H34  1  0.53378044  0.29350808  0.48398891  1
  H  H35  1  0.51440785  0.29282881  0.68324256  1
  H  H36  1  0.65899166  0.29584410  0.80082526  1
  H  H37  1  0.85001035  0.36897192  0.79029532  1
  H  H38  1  0.92253219  0.29632202  0.69978437  1
  H  H39  1  0.79221323  0.21298914  0.86661742  1
  H  H40  1  0.91206985  0.22929262  0.87979885  1
  H  H41  1  0.87339343  0.14885108  0.78787911  1
  H  H42  1  0.77887267  0.86513968  0.11838700  1
  H  H43  1  0.85449384  0.87433032  0.22281422  1
  H  H44  1  0.80674166  0.76412070  0.19130172  1
  H  H45  1  0.63931767  0.84759240  0.21768670  1
  H  H46  1  0.70294061  0.94684090  0.27515331  1
  H  H47  1  0.70339875  0.65849143  0.31686579  1
  H  H48  1  0.71036096  0.52360744  0.48652605  1
  H  H49  1  0.70708204  0.50578052  0.68533904  1
  H  H50  1  0.69883962  0.65350981  0.80261770  1
  H  H51  1  0.63140399  0.84263699  0.79775249  1
  H  H52  1  0.69135205  0.91734173  0.70283771  1
  H  H53  1  0.80048014  0.78685288  0.85600013  1
  H  H54  1  0.76744792  0.90466863  0.88148407  1
  H  H55  1  0.84497844  0.87889619  0.78146275  1
  Pb  Pb56  1  0.00995713  0.99518784  0.99558371  1
  Pb  Pb57  1  0.00016381  0.47852361  0.00262806  1
  Pb  Pb58  1  0.52540706  0.01315186  0.00144038  1
  Pb  Pb59  1  0.52677605  0.47033026  0.99320881  1
  C  C60  1  0.20233042  0.12480938  0.73383728  1
  C  C61  1  0.20655311  0.17938070  0.63035406  1
  C  C62  1  0.20527824  0.27996888  0.61602459  1
  C  C63  1  0.20868318  0.30730899  0.50534392  1
  C  C64  1  0.20944088  0.40239297  0.45939211  1
  C  C65  1  0.21150487  0.41138071  0.34865230  1
  C  C66  1  0.21140918  0.32714368  0.28208983  1
  C  C67  1  0.21143923  0.23169743  0.32469813  1
  C  C68  1  0.20874959  0.14221839  0.25297865  1
  C  C69  1  0.21100610  0.22248785  0.43684185  1
  C  C70  1  0.13495864  0.78460526  0.74052450  1
  C  C71  1  0.18663735  0.78708943  0.63506400  1
  C  C72  1  0.28596453  0.79065419  0.61931808  1
  C  C73  1  0.31282256  0.79002175  0.50844110  1
  C  C74  1  0.40722207  0.79030039  0.46214023  1
  C  C75  1  0.41671200  0.79011027  0.35147410  1
  C  C76  1  0.33334121  0.79134638  0.28554396  1
  C  C77  1  0.23858644  0.79018243  0.32848078  1
  C  C78  1  0.15130392  0.79317560  0.25565249  1
  C  C79  1  0.22886541  0.78828636  0.44068721  1
  C  C80  1  0.87668713  0.30784526  0.26475714  1
  C  C81  1  0.82124927  0.30045965  0.36740296  1
  C  C82  1  0.72135178  0.29904593  0.38062883  1
  C  C83  1  0.69267301  0.29406062  0.49095139  1
  C  C84  1  0.59780588  0.29303139  0.53621560  1
  C  C85  1  0.58726877  0.29231534  0.64690525  1
  C  C86  1  0.66992660  0.29308418  0.71399068  1
  C  C87  1  0.76509892  0.29317093  0.67201388  1
  C  C88  1  0.85268256  0.29965580  0.74383036  1
  C  C89  1  0.77573471  0.29294263  0.56011872  1
  C  C90  1  0.70427707  0.86614186  0.26503215  1
  C  C91  1  0.70755155  0.81224575  0.36862499  1
  C  C92  1  0.70701324  0.71170823  0.38260009  1
  C  C93  1  0.70921284  0.68391399  0.49304307  1
  C  C94  1  0.70978869  0.58866829  0.53860334  1
  C  C95  1  0.70824584  0.57902045  0.64922448  1
  C  C96  1  0.70485641  0.66311116  0.71593093  1
  C  C97  1  0.70549962  0.75858262  0.67368685  1
  C  C98  1  0.69658869  0.84696969  0.74620048  1
  C  C99  1  0.70890859  0.76840796  0.56180316  1
  S  S100  1  0.21152134  0.11355719  0.51039218  1
  S  S101  1  0.12105789  0.78457613  0.51551709  1
  S  S102  1  0.88475474  0.29575400  0.48788583  1
  S  S103  1  0.70909304  0.87774155  0.48887037  1
  I  I104  1  0.23542194  0.94115752  0.98995770  1
  I  I105  1  0.21754559  0.51925934  0.01484143  1
  I  I106  1  0.75466092  0.05317213  0.00950214  1
  I  I107  1  0.76457568  0.41160408  1.00275920  1
  I  I108  1  0.06408276  0.23756931  0.99884843  1
  I  I109  1  0.96608441  0.77007727  0.99020722  1
  I  I110  1  0.43534393  0.25715682  0.98354079  1
  I  I111  1  0.56835048  0.79112441  0.01695348  1
  I  I112  1  0.96891570  0.00162867  0.73299331  1
  I  I113  1  0.97814089  0.00036334  0.26092899  1
  I  I114  1  0.99665001  0.52257418  0.75390844  1
  I  I115  1  0.94454154  0.57051206  0.24033283  1
  I  I116  1  0.48726358  0.00411168  0.74377178  1
  I  I117  1  0.52043702  0.06382912  0.25677005  1
  I  I118  1  0.43155095  0.57277264  0.79438450  1
  I  I119  1  0.47804561  0.53284159  0.21697867  1
  N  N120  1  0.28896230  0.14362302  0.80344139  1
  N  N121  1  0.29327879  0.13647512  0.17646634  1
  N  N122  1  0.16632662  0.69550150  0.80527158  1
  N  N123  1  0.14662678  0.70291551  0.18577258  1
  N  N124  1  0.86167273  0.21933223  0.19393114  1
  N  N125  1  0.85679186  0.21771234  0.82391491  1
  N  N126  1  0.79162096  0.83946566  0.19521283  1
  N  N127  1  0.78243020  0.85352752  0.82034833  1
