# generated using pymatgen
data_H12PbC9S(I2N)2
_symmetry_space_group_name_H-M   'P 1'
_cell_length_a   12.44608867
_cell_length_b   12.36861655
_cell_length_c   13.65621080
_cell_angle_alpha   88.59438163
_cell_angle_beta   88.41184373
_cell_angle_gamma   89.19682599
_symmetry_Int_Tables_number   1
_chemical_formula_structural   H12PbC9S(I2N)2
_chemical_formula_sum   'H48 Pb4 C36 S4 I16 N8'
_cell_volume   2100.62233948
_cell_formula_units_Z   4
loop_
 _symmetry_equiv_pos_site_id
 _symmetry_equiv_pos_as_xyz
  1  'x, y, z'
loop_
 _atom_site_type_symbol
 _atom_site_label
 _atom_site_symmetry_multiplicity
 _atom_site_fract_x
 _atom_site_fract_y
 _atom_site_fract_z
 _atom_site_occupancy
  H  H0  1  0.22201171  0.19307664  0.87295775  1
  H  H1  1  0.15396989  0.27646629  0.79753619  1
  H  H2  1  0.15691298  0.14192322  0.77880230  1
  H  H3  1  0.35206983  0.14693554  0.74924183  1
  H  H4  1  0.34705789  0.28853034  0.76983930  1
  H  H5  1  0.28410764  0.41599259  0.64763778  1
  H  H6  1  0.25430341  0.45831327  0.47162197  1
  H  H7  1  0.22853321  0.36848548  0.28490846  1
  H  H8  1  0.29326730  0.19057263  0.14560985  1
  H  H9  1  0.20734752  0.08969542  0.17640096  1
  H  H10  1  0.16034582  0.21285042  0.15612838  1
  H  H11  1  0.28096598  0.07314866  0.59518597  1
  H  H12  1  0.20027761  0.76895589  0.87336718  1
  H  H13  1  0.28225654  0.83547012  0.79545567  1
  H  H14  1  0.14900719  0.84368136  0.78023754  1
  H  H15  1  0.14198544  0.64959230  0.75118331  1
  H  H16  1  0.28221740  0.63955626  0.77067848  1
  H  H17  1  0.41310105  0.71789812  0.64985182  1
  H  H18  1  0.45602094  0.75057754  0.47303316  1
  H  H19  1  0.36786362  0.77445228  0.28362219  1
  H  H20  1  0.18455083  0.70122496  0.14739486  1
  H  H21  1  0.09141877  0.79929830  0.17651851  1
  H  H22  1  0.21597691  0.83228160  0.14923772  1
  H  H23  1  0.07320837  0.71344485  0.59402155  1
  H  H24  1  0.80256921  0.30236670  0.12819114  1
  H  H25  1  0.72172964  0.36256706  0.21159944  1
  H  H26  1  0.85553670  0.35905703  0.22459437  1
  H  H27  1  0.85851118  0.16346040  0.24432546  1
  H  H28  1  0.71822400  0.16131081  0.22337429  1
  H  H29  1  0.58642050  0.22196348  0.34742911  1
  H  H30  1  0.54173181  0.24872882  0.52356187  1
  H  H31  1  0.62852811  0.27727502  0.71151060  1
  H  H32  1  0.81870200  0.21508684  0.85157262  1
  H  H33  1  0.90353039  0.31811673  0.81464756  1
  H  H34  1  0.77565567  0.34353396  0.84171914  1
  H  H35  1  0.92626255  0.22056233  0.40396443  1
  H  H36  1  0.70704300  0.78978558  0.13087396  1
  H  H37  1  0.65106808  0.70874073  0.21609469  1
  H  H38  1  0.63961171  0.84561679  0.22450916  1
  H  H39  1  0.83135688  0.86149120  0.24579620  1
  H  H40  1  0.84727523  0.72018454  0.22813674  1
  H  H41  1  0.77717438  0.58772638  0.35105230  1
  H  H42  1  0.74820807  0.54372712  0.52793969  1
  H  H43  1  0.71907697  0.63164331  0.71691699  1
  H  H44  1  0.78549265  0.81641794  0.85610259  1
  H  H45  1  0.68846765  0.90849154  0.82601464  1
  H  H46  1  0.65563204  0.78265576  0.85118425  1
  H  H47  1  0.77731945  0.92979691  0.40764302  1
  Pb  Pb48  1  0.98732037  0.99882777  0.99026835  1
  Pb  Pb49  1  0.01325240  0.50751941  0.00733999  1
  Pb  Pb50  1  0.49704908  0.01400086  0.00218610  1
  Pb  Pb51  1  0.50515012  0.49759634  0.00453796  1
  C  C52  1  0.30399357  0.22121736  0.73856815  1
  C  C53  1  0.28208688  0.24268654  0.63221662  1
  C  C54  1  0.27483263  0.35069788  0.59644813  1
  C  C55  1  0.25877470  0.37457032  0.49823370  1
  C  C56  1  0.24996908  0.28944008  0.43246511  1
  C  C57  1  0.23649090  0.29413826  0.32863310  1
  C  C58  1  0.23378976  0.19300779  0.29147805  1
  C  C59  1  0.25698705  0.18081474  0.46936212  1
  C  C60  1  0.27314987  0.15676964  0.56854751  1
  C  C61  1  0.21866072  0.69116792  0.73934206  1
  C  C62  1  0.24093857  0.71564501  0.63265242  1
  C  C63  1  0.34840344  0.72639251  0.59781078  1
  C  C64  1  0.37272127  0.74397787  0.49906210  1
  C  C65  1  0.28887278  0.75053805  0.43192536  1
  C  C66  1  0.29404415  0.76423199  0.32739881  1
  C  C67  1  0.19386644  0.76360545  0.28966285  1
  C  C68  1  0.18092665  0.74027379  0.46826711  1
  C  C69  1  0.15629388  0.72304793  0.56789198  1
  C  C70  1  0.78200215  0.20665158  0.25738502  1
  C  C71  1  0.75851115  0.22105505  0.36484608  1
  C  C72  1  0.65063426  0.22865011  0.39954144  1
  C  C73  1  0.62530340  0.24308157  0.49789794  1
  C  C74  1  0.70874755  0.25055571  0.56482447  1
  C  C75  1  0.70272047  0.26653361  0.66840718  1
  C  C76  1  0.80280448  0.27023974  0.70610954  1
  C  C77  1  0.81710441  0.24228812  0.52898808  1
  C  C78  1  0.84268385  0.22731516  0.42980571  1
  C  C79  1  0.79474494  0.78247988  0.26081142  1
  C  C80  1  0.77729747  0.76083459  0.36870983  1
  C  C81  1  0.76999314  0.65256029  0.40358550  1
  C  C82  1  0.75438114  0.62767159  0.50233160  1
  C  C83  1  0.74697400  0.71200406  0.56970041  1
  C  C84  1  0.73134113  0.70613378  0.67402617  1
  C  C85  1  0.72992097  0.80675238  0.71247820  1
  C  C86  1  0.75599135  0.82086234  0.53383975  1
  C  C87  1  0.77054179  0.84599716  0.43387276  1
  S  S88  1  0.24613973  0.08797530  0.37693893  1
  S  S89  1  0.08941530  0.74820337  0.37507045  1
  S  S90  1  0.90822345  0.25547826  0.62143016  1
  S  S91  1  0.74592723  0.91249426  0.62790917  1
  I  I92  1  0.24365327  0.95939712  0.00317519  1
  I  I93  1  0.24839287  0.59407134  0.00723219  1
  I  I94  1  0.74413980  0.08593694  0.98435935  1
  I  I95  1  0.75526423  0.47313666  0.97519687  1
  I  I96  1  0.03112599  0.25350217  0.02396995  1
  I  I97  1  0.91198269  0.75827904  0.99450241  1
  I  I98  1  0.40069463  0.25617550  0.00243945  1
  I  I99  1  0.53526361  0.75481704  1.00012892  1
  I  I100  1  0.01692697  0.99396898  0.75317734  1
  I  I101  1  0.00462169  0.99386846  0.22319473  1
  I  I102  1  0.04520448  0.44957499  0.77514917  1
  I  I103  1  0.00264932  0.49830526  0.23825485  1
  I  I104  1  0.48167025  0.97629405  0.76965055  1
  I  I105  1  0.51191936  0.00297770  0.23550640  1
  I  I106  1  0.49598010  0.49693098  0.77618385  1
  I  I107  1  0.56870258  0.50779703  0.23828258  1
  N  N108  1  0.20276900  0.20685895  0.80050296  1
  N  N109  1  0.22427246  0.17011875  0.18846590  1
  N  N110  1  0.21220109  0.79116149  0.80024612  1
  N  N111  1  0.17016096  0.77292741  0.18636802  1
  N  N112  1  0.79049831  0.31354408  0.20244322  1
  N  N113  1  0.82615967  0.28561469  0.80808089  1
  N  N114  1  0.69191719  0.78152053  0.20552291  1
  N  N115  1  0.71577744  0.82967300  0.81593102  1
