# generated using pymatgen
data_H12PbC9S(I2N)2
_symmetry_space_group_name_H-M   'P 1'
_cell_length_a   12.50572436
_cell_length_b   12.36382443
_cell_length_c   13.53185280
_cell_angle_alpha   89.56550600
_cell_angle_beta   89.66513402
_cell_angle_gamma   89.29755496
_symmetry_Int_Tables_number   1
_chemical_formula_structural   H12PbC9S(I2N)2
_chemical_formula_sum   'H48 Pb4 C36 S4 I16 N8'
_cell_volume   2092.02386417
_cell_formula_units_Z   4
loop_
 _symmetry_equiv_pos_site_id
 _symmetry_equiv_pos_as_xyz
  1  'x, y, z'
loop_
 _atom_site_type_symbol
 _atom_site_label
 _atom_site_symmetry_multiplicity
 _atom_site_fract_x
 _atom_site_fract_y
 _atom_site_fract_z
 _atom_site_occupancy
  H  H0  1  0.35529118  0.27673006  0.78510377  1
  H  H1  1  0.35499981  0.13947079  0.77461695  1
  H  H2  1  0.29538931  0.20095808  0.87006887  1
  H  H3  1  0.16655760  0.29351320  0.76524981  1
  H  H4  1  0.15547880  0.15001155  0.76179771  1
  H  H5  1  0.22777963  0.39675478  0.60651755  1
  H  H6  1  0.25902967  0.45530415  0.40581466  1
  H  H7  1  0.28476096  0.38565881  0.23522211  1
  H  H8  1  0.21996170  0.19007711  0.13657895  1
  H  H9  1  0.35032094  0.21877525  0.14190514  1
  H  H10  1  0.31137995  0.09834721  0.17934706  1
  H  H11  1  0.26293177  0.05558501  0.34101219  1
  H  H12  1  0.27307517  0.63308678  0.78754309  1
  H  H13  1  0.14011157  0.64206599  0.77463104  1
  H  H14  1  0.19716664  0.69848462  0.87194071  1
  H  H15  1  0.29391342  0.82801125  0.76932089  1
  H  H16  1  0.15239378  0.84359030  0.76415102  1
  H  H17  1  0.39731084  0.77061270  0.60935826  1
  H  H18  1  0.45457873  0.73971134  0.40785571  1
  H  H19  1  0.38491842  0.71742676  0.23781748  1
  H  H20  1  0.18609452  0.78960716  0.14074698  1
  H  H21  1  0.21987500  0.65819853  0.14426044  1
  H  H22  1  0.09953951  0.69427654  0.18475735  1
  H  H23  1  0.05954032  0.74454427  0.34470742  1
  H  H24  1  0.73518295  0.15443071  0.20496494  1
  H  H25  1  0.86715899  0.15895647  0.22335104  1
  H  H26  1  0.81071305  0.22565144  0.12749729  1
  H  H27  1  0.70743018  0.34353750  0.23494333  1
  H  H28  1  0.84769397  0.36140997  0.24227697  1
  H  H29  1  0.60530782  0.27570895  0.39228356  1
  H  H30  1  0.54829001  0.24114848  0.59347606  1
  H  H31  1  0.61797878  0.22061599  0.76467325  1
  H  H32  1  0.80834403  0.29422924  0.86112977  1
  H  H33  1  0.78618950  0.16129455  0.85974270  1
  H  H34  1  0.90336703  0.20456891  0.82048104  1
  H  H35  1  0.94312412  0.24519902  0.65781604  1
  H  H36  1  0.84903866  0.72712809  0.20345370  1
  H  H37  1  0.84135539  0.86218751  0.22051551  1
  H  H38  1  0.77679003  0.80540267  0.12563885  1
  H  H39  1  0.66440543  0.70015274  0.23594522  1
  H  H40  1  0.64209057  0.84284643  0.24117476  1
  H  H41  1  0.72674961  0.60004088  0.39414173  1
  H  H42  1  0.75842689  0.54385221  0.59538027  1
  H  H43  1  0.77720485  0.61564488  0.76537991  1
  H  H44  1  0.70680577  0.80513586  0.86210108  1
  H  H45  1  0.83956183  0.78814326  0.85574257  1
  H  H46  1  0.78664331  0.90515821  0.82035648  1
  H  H47  1  0.75416078  0.94445117  0.65562409  1
  Pb  Pb48  1  0.01056990  0.00094496  0.00650015  1
  Pb  Pb49  1  0.98823102  0.49117519  0.99564914  1
  Pb  Pb50  1  0.49986671  0.98427942  0.99894075  1
  Pb  Pb51  1  0.49764374  0.50197862  0.99456684  1
  C  C52  1  0.20539072  0.21859762  0.73937615  1
  C  C53  1  0.22161182  0.22390547  0.63022410  1
  C  C54  1  0.23078105  0.31624481  0.57435745  1
  C  C55  1  0.24540525  0.29506106  0.47139781  1
  C  C56  1  0.25852323  0.36849182  0.39222185  1
  C  C57  1  0.27253146  0.32990600  0.29702982  1
  C  C58  1  0.27332892  0.21789757  0.28115978  1
  C  C59  1  0.26073283  0.14204951  0.35622513  1
  C  C60  1  0.24672356  0.18174417  0.45201539  1
  C  C61  1  0.22012657  0.79123343  0.74246692  1
  C  C62  1  0.22635258  0.77690081  0.63332336  1
  C  C63  1  0.31765017  0.76762701  0.57749114  1
  C  C64  1  0.29666116  0.75502198  0.47442121  1
  C  C65  1  0.36867222  0.74189441  0.39477288  1
  C  C66  1  0.32995795  0.73015971  0.29962554  1
  C  C67  1  0.21915324  0.73204259  0.28410314  1
  C  C68  1  0.14493237  0.74473942  0.35978176  1
  C  C69  1  0.18457728  0.75579747  0.45534998  1
  C  C70  1  0.78239596  0.30613912  0.26118268  1
  C  C71  1  0.77621566  0.28372387  0.36921457  1
  C  C72  1  0.68494715  0.27141082  0.42441366  1
  C  C73  1  0.70609146  0.25543931  0.52734443  1
  C  C74  1  0.63407842  0.24217056  0.60686353  1
  C  C75  1  0.67270869  0.23097162  0.70235810  1
  C  C76  1  0.78342120  0.23257920  0.71816001  1
  C  C77  1  0.85776156  0.24430034  0.64257917  1
  C  C78  1  0.81811701  0.25595428  0.54678987  1
  C  C79  1  0.69836786  0.77697897  0.26030880  1
  C  C80  1  0.71973228  0.77261836  0.36839784  1
  C  C81  1  0.73050116  0.68097456  0.42514163  1
  C  C82  1  0.74475655  0.70332856  0.52770958  1
  C  C83  1  0.75686812  0.63086366  0.60783428  1
  C  C84  1  0.76702532  0.67075304  0.70273330  1
  C  C85  1  0.76540411  0.78300492  0.71726602  1
  C  C86  1  0.75486618  0.85785106  0.64110847  1
  C  C87  1  0.74446274  0.81688729  0.54572199  1
  S  S88  1  0.22961121  0.10650622  0.55939930  1
  S  S89  1  0.11019759  0.77199016  0.56264320  1
  S  S90  1  0.89229825  0.27598313  0.44002878  1
  S  S91  1  0.72625678  0.89091839  0.43786685  1
  I  I92  1  0.25504635  0.91866214  0.00620439  1
  I  I93  1  0.24882086  0.51713058  0.02681153  1
  I  I94  1  0.75603796  0.03390558  0.00254460  1
  I  I95  1  0.75294258  0.41205351  0.99372827  1
  I  I96  1  0.07898911  0.24216862  0.01143655  1
  I  I97  1  0.97865574  0.74443299  0.97439575  1
  I  I98  1  0.47516887  0.24299986  0.99506693  1
  I  I99  1  0.59670648  0.74286555  0.00308244  1
  I  I100  1  0.99074053  0.00516326  0.77043949  1
  I  I101  1  0.99599029  0.99737974  0.24714161  1
  I  I102  1  0.00967933  0.48061960  0.76341933  1
  I  I103  1  0.95558618  0.55583883  0.23054720  1
  I  I104  1  0.48578039  0.98208771  0.76203452  1
  I  I105  1  0.51576974  0.02161505  0.23397448  1
  I  I106  1  0.42188226  0.48778616  0.75839972  1
  I  I107  1  0.52586598  0.49654087  0.22293750  1
  N  N108  1  0.30903671  0.20774931  0.79488043  1
  N  N109  1  0.28854102  0.17917481  0.17974111  1
  N  N110  1  0.20699959  0.68530226  0.79712042  1
  N  N111  1  0.17904631  0.71947260  0.18357793  1
  N  N112  1  0.80037181  0.20505333  0.20120689  1
  N  N113  1  0.82256808  0.22355234  0.81959143  1
  N  N114  1  0.79779050  0.79484469  0.19895165  1
  N  N115  1  0.77415818  0.82276604  0.81828420  1
