# generated using pymatgen
data_H14PbC12S2(I2N)2
_symmetry_space_group_name_H-M   'P 1'
_cell_length_a   12.84415411
_cell_length_b   12.89976989
_cell_length_c   16.63907520
_cell_angle_alpha   90.77260509
_cell_angle_beta   90.20286314
_cell_angle_gamma   90.19264709
_symmetry_Int_Tables_number   1
_chemical_formula_structural   H14PbC12S2(I2N)2
_chemical_formula_sum   'H56 Pb4 C48 S8 I16 N8'
_cell_volume   2756.58838886
_cell_formula_units_Z   4
loop_
 _symmetry_equiv_pos_site_id
 _symmetry_equiv_pos_as_xyz
  1  'x, y, z'
loop_
 _atom_site_type_symbol
 _atom_site_label
 _atom_site_symmetry_multiplicity
 _atom_site_fract_x
 _atom_site_fract_y
 _atom_site_fract_z
 _atom_site_occupancy
  H  H0  1  0.20735820  0.18112456  0.85261575  1
  H  H1  1  0.27315858  0.07116490  0.86464215  1
  H  H2  1  0.18297217  0.08029816  0.79138594  1
  H  H3  1  0.37441444  0.21233511  0.79932197  1
  H  H4  1  0.37720206  0.08576320  0.75774502  1
  H  H5  1  0.30769132  0.36066715  0.70728771  1
  H  H6  1  0.26864583  0.47777878  0.57157822  1
  H  H7  1  0.23278752  0.47400625  0.42398082  1
  H  H8  1  0.20094177  0.35091860  0.28893191  1
  H  H9  1  0.13464760  0.19489551  0.19676533  1
  H  H10  1  0.13907037  0.06906266  0.23669032  1
  H  H11  1  0.24746970  0.07002535  0.12815100  1
  H  H12  1  0.30934008  0.17903440  0.15034616  1
  H  H13  1  0.33363112  0.07401006  0.20528891  1
  H  H14  1  0.18212371  0.79724332  0.85121182  1
  H  H15  1  0.07048189  0.73583832  0.86719127  1
  H  H16  1  0.07925467  0.82300124  0.79304662  1
  H  H17  1  0.20382491  0.62790976  0.79738688  1
  H  H18  1  0.07683227  0.63042685  0.75680024  1
  H  H19  1  0.35699282  0.69380998  0.70669260  1
  H  H20  1  0.47700817  0.73166334  0.57110979  1
  H  H21  1  0.47522041  0.76711740  0.42399045  1
  H  H22  1  0.35327425  0.79913084  0.28931626  1
  H  H23  1  0.19669883  0.86613386  0.19862364  1
  H  H24  1  0.06969879  0.85737587  0.23799254  1
  H  H25  1  0.07771117  0.75113743  0.12730454  1
  H  H26  1  0.18660336  0.69030181  0.15086779  1
  H  H27  1  0.07844170  0.66541052  0.20364418  1
  H  H28  1  0.82013579  0.30912974  0.15097690  1
  H  H29  1  0.92931293  0.24787770  0.12957896  1
  H  H30  1  0.92622008  0.33522613  0.20634168  1
  H  H31  1  0.80548511  0.13549374  0.19725273  1
  H  H32  1  0.93165996  0.14250406  0.23880369  1
  H  H33  1  0.64817492  0.20227873  0.28739339  1
  H  H34  1  0.52468002  0.23319610  0.42136819  1
  H  H35  1  0.52135984  0.26890061  0.56919338  1
  H  H36  1  0.63956192  0.30821964  0.70653936  1
  H  H37  1  0.79063118  0.37382330  0.80094981  1
  H  H38  1  0.91802938  0.37294144  0.76146108  1
  H  H39  1  0.92745872  0.26706891  0.86825413  1
  H  H40  1  0.81450487  0.20637629  0.85178028  1
  H  H41  1  0.91660054  0.17949044  0.79299006  1
  H  H42  1  0.68893143  0.81290972  0.15120746  1
  H  H43  1  0.75094799  0.92160949  0.12943053  1
  H  H44  1  0.66340531  0.92048664  0.20526728  1
  H  H45  1  0.86475672  0.80315799  0.19905280  1
  H  H46  1  0.85551303  0.92931315  0.24027190  1
  H  H47  1  0.79710450  0.64664898  0.28816895  1
  H  H48  1  0.76648405  0.52548514  0.42199445  1
  H  H49  1  0.73131983  0.52409166  0.56950336  1
  H  H50  1  0.69270627  0.64394257  0.70644263  1
  H  H51  1  0.62666220  0.79744883  0.79905835  1
  H  H52  1  0.63296363  0.92409298  0.76062843  1
  H  H53  1  0.73933643  0.92706647  0.87059628  1
  H  H54  1  0.79699865  0.81419218  0.85120748  1
  H  H55  1  0.82604356  0.91739645  0.79527850  1
  Pb  Pb56  1  0.00902112  0.00068747  0.95441900  1
  Pb  Pb57  1  0.97493813  0.52450450  0.03371777  1
  Pb  Pb58  1  0.52026885  0.02088661  0.03319067  1
  Pb  Pb59  1  0.48355942  0.53531759  0.01056300  1
  C  C60  1  0.32821994  0.15461927  0.76566054  1
  C  C61  1  0.29364578  0.19535602  0.68713344  1
  C  C62  1  0.29003046  0.29719872  0.66532496  1
  C  C63  1  0.26817260  0.31042219  0.58181916  1
  C  C64  1  0.25929790  0.40437933  0.53905982  1
  C  C65  1  0.24002290  0.40236831  0.45750845  1
  C  C66  1  0.23062340  0.30625828  0.41570540  1
  C  C67  1  0.21328783  0.28889549  0.33177833  1
  C  C68  1  0.21051520  0.18598244  0.31076187  1
  C  C69  1  0.18345622  0.14121082  0.23075620  1
  C  C70  1  0.23915839  0.21127560  0.45763076  1
  C  C71  1  0.25712875  0.21337698  0.54097986  1
  C  C72  1  0.14821414  0.67626900  0.76480594  1
  C  C73  1  0.19121618  0.70864647  0.68645692  1
  C  C74  1  0.29397086  0.71125122  0.66485193  1
  C  C75  1  0.30873249  0.73234706  0.58152952  1
  C  C76  1  0.40370732  0.74088823  0.53879046  1
  C  C77  1  0.40281692  0.75992963  0.45746508  1
  C  C78  1  0.30690410  0.76924336  0.41576451  1
  C  C79  1  0.29054322  0.78661718  0.33211798  1
  C  C80  1  0.18745233  0.78939687  0.31132385  1
  C  C81  1  0.14343616  0.81567468  0.23168952  1
  C  C82  1  0.21095315  0.76077556  0.45760634  1
  C  C83  1  0.21192672  0.74335090  0.54074266  1
  C  C84  1  0.85888927  0.18554872  0.23185689  1
  C  C85  1  0.81386620  0.21279407  0.31130695  1
  C  C86  1  0.71053553  0.21497466  0.33106063  1
  C  C87  1  0.69318084  0.23183693  0.41493643  1
  C  C88  1  0.59676462  0.24071066  0.45572255  1
  C  C89  1  0.59493914  0.25982889  0.53741339  1
  C  C90  1  0.68942140  0.26873554  0.58135345  1
  C  C91  1  0.70302396  0.29022629  0.66521084  1
  C  C92  1  0.80541103  0.29327861  0.68824894  1
  C  C93  1  0.84707508  0.32629102  0.76771892  1
  C  C94  1  0.78671891  0.25782046  0.54157616  1
  C  C95  1  0.78866598  0.24042688  0.45808816  1
  C  C96  1  0.81359133  0.85571219  0.23287457  1
  C  C97  1  0.78664894  0.81177821  0.31197150  1
  C  C98  1  0.78446271  0.70917940  0.33171045  1
  C  C99  1  0.76777278  0.69307726  0.41540417  1
  C  C100  1  0.75905908  0.59767269  0.45625043  1
  C  C101  1  0.74025369  0.59696720  0.53775708  1
  C  C102  1  0.73160582  0.69167327  0.58150007  1
  C  C103  1  0.71065064  0.70656472  0.66515250  1
  C  C104  1  0.70833138  0.80898431  0.68784037  1
  C  C105  1  0.67687221  0.85197131  0.76708220  1
  C  C106  1  0.74241736  0.78796990  0.54162097  1
  C  C107  1  0.75932960  0.78873830  0.45831553  1
  S  S108  1  0.22740383  0.10524382  0.39327973  1
  S  S109  1  0.27163165  0.11057354  0.60583347  1
  S  S110  1  0.10528482  0.77230626  0.39355499  1
  S  S111  1  0.10761536  0.73010827  0.60532915  1
  S  S112  1  0.89018891  0.27156115  0.60776644  1
  S  S113  1  0.89507905  0.22945901  0.39500626  1
  S  S114  1  0.72964881  0.89202686  0.60741446  1
  S  S115  1  0.77008328  0.89382640  0.39528753  1
  I  I116  1  0.22722311  0.91337483  0.98323570  1
  I  I117  1  0.24471652  0.58118051  0.03133429  1
  I  I118  1  0.75121197  0.07756368  0.98292320  1
  I  I119  1  0.77000413  0.40765740  0.01771978  1
  I  I120  1  0.07950360  0.22580548  0.97974687  1
  I  I121  1  0.91373009  0.75169394  0.98222967  1
  I  I122  1  0.41262290  0.23102510  0.02162769  1
  I  I123  1  0.58272018  0.75899945  0.02592037  1
  I  I124  1  1.00026002  0.00016245  0.74402433  1
  I  I125  1  0.99271842  0.99547081  0.13102460  1
  I  I126  1  0.03066436  0.48051349  0.86236335  1
  I  I127  1  0.99743379  0.50335138  0.24550554  1
  I  I128  1  0.47517383  0.97053629  0.85989601  1
  I  I129  1  0.50067113  0.00180270  0.24531850  1
  I  I130  1  0.50383000  0.50034336  0.80632523  1
  I  I131  1  0.51340733  0.49152045  0.18788913  1
  N  N132  1  0.24219353  0.12035857  0.82146589  1
  N  N133  1  0.27355002  0.11485653  0.17633152  1
  N  N134  1  0.11872852  0.76354370  0.82194189  1
  N  N135  1  0.12049538  0.72542724  0.17594176  1
  N  N136  1  0.88483924  0.27452524  0.17737300  1
  N  N137  1  0.87766775  0.23907091  0.82308758  1
  N  N138  1  0.72398294  0.87859424  0.17726665  1
  N  N139  1  0.76545710  0.87873527  0.82400648  1
