# generated using pymatgen
data_H13PbC9SI4N3
_symmetry_space_group_name_H-M   'P 1'
_cell_length_a   12.51826972
_cell_length_b   12.23720783
_cell_length_c   14.48412834
_cell_angle_alpha   88.91811971
_cell_angle_beta   88.84883743
_cell_angle_gamma   88.35531927
_symmetry_Int_Tables_number   1
_chemical_formula_structural   H13PbC9SI4N3
_chemical_formula_sum   'H52 Pb4 C36 S4 I16 N12'
_cell_volume   2217.07065557
_cell_formula_units_Z   4
loop_
 _symmetry_equiv_pos_site_id
 _symmetry_equiv_pos_as_xyz
  1  'x, y, z'
loop_
 _atom_site_type_symbol
 _atom_site_label
 _atom_site_symmetry_multiplicity
 _atom_site_fract_x
 _atom_site_fract_y
 _atom_site_fract_z
 _atom_site_occupancy
  H  H0  1  0.17609668  0.17549930  0.78878750  1
  H  H1  1  0.28566052  0.21384819  0.83935202  1
  H  H2  1  0.16889941  0.26481586  0.87768805  1
  H  H3  1  0.28097157  0.38826542  0.76848195  1
  H  H4  1  0.14070044  0.38123528  0.75544853  1
  H  H5  1  0.24721413  0.44674396  0.58604051  1
  H  H6  1  0.32511580  0.15694015  0.20981002  1
  H  H7  1  0.34915776  0.30029146  0.20171399  1
  H  H8  1  0.14733475  0.32788103  0.20094875  1
  H  H9  1  0.20185273  0.26527402  0.10945615  1
  H  H10  1  0.13979133  0.19023928  0.19198489  1
  H  H11  1  0.27027591  0.07372367  0.37045841  1
  H  H12  1  0.23825944  0.04231587  0.56671821  1
  H  H13  1  0.17675459  0.80610123  0.78950585  1
  H  H14  1  0.23408586  0.70912364  0.85654118  1
  H  H15  1  0.26037417  0.83918075  0.87553111  1
  H  H16  1  0.39269242  0.71320807  0.77221932  1
  H  H17  1  0.37752866  0.85681009  0.75611239  1
  H  H18  1  0.44248697  0.74694870  0.58850748  1
  H  H19  1  0.14954151  0.69068461  0.21839219  1
  H  H20  1  0.28624169  0.64718979  0.20938903  1
  H  H21  1  0.33256561  0.84456780  0.19679912  1
  H  H22  1  0.25207840  0.80319755  0.11343444  1
  H  H23  1  0.20035966  0.87826149  0.19955402  1
  H  H24  1  0.07356268  0.73603500  0.37983490  1
  H  H25  1  0.04643138  0.76318155  0.57644563  1
  H  H26  1  0.82754712  0.29041244  0.21944394  1
  H  H27  1  0.77379824  0.19913816  0.14944254  1
  H  H28  1  0.75104474  0.33158491  0.12660029  1
  H  H29  1  0.61432557  0.20808086  0.23025850  1
  H  H30  1  0.62195642  0.35216927  0.23609123  1
  H  H31  1  0.55710688  0.24867020  0.41266565  1
  H  H32  1  0.84632697  0.17694618  0.78667314  1
  H  H33  1  0.70805220  0.14688574  0.79554649  1
  H  H34  1  0.67569359  0.35492610  0.79380832  1
  H  H35  1  0.72917720  0.29700803  0.88741034  1
  H  H36  1  0.80776288  0.36524536  0.81016158  1
  H  H37  1  0.92434758  0.23226403  0.62513653  1
  H  H38  1  0.95218109  0.26591359  0.42853505  1
  H  H39  1  0.66161425  0.81551546  0.20697669  1
  H  H40  1  0.77696436  0.77790199  0.15819668  1
  H  H41  1  0.66683750  0.72154453  0.12188602  1
  H  H42  1  0.77960273  0.60302700  0.23104236  1
  H  H43  1  0.63910075  0.61447253  0.25094347  1
  H  H44  1  0.74972354  0.55192622  0.41565031  1
  H  H45  1  0.82400090  0.85122148  0.78237735  1
  H  H46  1  0.85974646  0.70882992  0.78995895  1
  H  H47  1  0.66324186  0.67372610  0.80326354  1
  H  H48  1  0.71128270  0.74681332  0.88943158  1
  H  H49  1  0.64112023  0.81131114  0.80686274  1
  H  H50  1  0.76899554  0.93087022  0.62171811  1
  H  H51  1  0.73645811  0.95751193  0.42557388  1
  Pb  Pb52  1  1.00431105  0.99810790  -0.00052771  1
  Pb  Pb53  1  0.98722916  0.51009436  0.00766846  1
  Pb  Pb54  1  0.51095196  0.00021662  0.00020840  1
  Pb  Pb55  1  0.48370419  0.49308537  0.99150486  1
  C  C56  1  0.21686938  0.33395532  0.74979927  1
  C  C57  1  0.23288569  0.28841026  0.65445854  1
  C  C58  1  0.24602566  0.35826394  0.57832089  1
  C  C59  1  0.25701390  0.30897458  0.49231560  1
  C  C60  1  0.28000334  0.24465271  0.33099225  1
  C  C61  1  0.29395703  0.23855664  0.22866485  1
  C  C62  1  0.26901009  0.15860650  0.39190308  1
  C  C63  1  0.25556351  0.19287858  0.48531609  1
  C  C64  1  0.24123969  0.13154557  0.56737132  1
  C  C65  1  0.33526433  0.77921395  0.75373985  1
  C  C66  1  0.28903657  0.76382389  0.65954269  1
  C  C67  1  0.35579342  0.74987607  0.58231716  1
  C  C68  1  0.30597719  0.74068219  0.49742329  1
  C  C69  1  0.23987187  0.72350917  0.33750430  1
  C  C70  1  0.23130158  0.71164581  0.23574309  1
  C  C71  1  0.15692785  0.73489282  0.39985112  1
  C  C72  1  0.19225212  0.74498971  0.49250954  1
  C  C73  1  0.13375427  0.75895440  0.57544772  1
  C  C74  1  0.66767100  0.27461798  0.24597043  1
  C  C75  1  0.71078834  0.26425548  0.34268625  1
  C  C76  1  0.64355190  0.25180678  0.41962922  1
  C  C77  1  0.69277316  0.24294888  0.50546770  1
  C  C78  1  0.75808180  0.22073844  0.66623463  1
  C  C79  1  0.76556696  0.20637611  0.76842855  1
  C  C80  1  0.84117698  0.23327830  0.60450165  1
  C  C81  1  0.80628196  0.24634542  0.51147255  1
  C  C82  1  0.86518893  0.26111107  0.42892447  1
  C  C83  1  0.71393963  0.65976058  0.25137854  1
  C  C84  1  0.73138465  0.70863315  0.34428038  1
  C  C85  1  0.74700173  0.64076638  0.42130832  1
  C  C86  1  0.75893484  0.69249625  0.50541260  1
  C  C87  1  0.78357551  0.76054590  0.66394852  1
  C  C88  1  0.79925628  0.76877689  0.76527556  1
  C  C89  1  0.76955760  0.84538821  0.60194640  1
  C  C90  1  0.75552679  0.80889299  0.50986648  1
  C  C91  1  0.73980593  0.86807864  0.42694764  1
  S  S92  1  0.27539354  0.37143855  0.38560710  1
  S  S93  1  0.36489331  0.72295358  0.38977356  1
  S  S94  1  0.63362028  0.22339298  0.61285607  1
  S  S95  1  0.78097519  0.63235694  0.61215585  1
  I  I96  1  0.26226115  0.03428038  0.98298877  1
  I  I97  1  0.23984594  0.46152213  0.97513376  1
  I  I98  1  0.76268443  0.93731409  0.00656077  1
  I  I99  1  0.73693145  0.52702192  0.02206223  1
  I  I100  1  -0.02429728  0.25403103  0.99743647  1
  I  I101  1  0.06957742  0.75037355  0.01258637  1
  I  I102  1  0.56760229  0.24552371  0.00436855  1
  I  I103  1  0.47036125  0.74725857  0.99519747  1
  I  I104  1  0.01913840  0.00332671  0.78240159  1
  I  I105  1  0.04679441  0.01409965  0.22821701  1
  I  I106  1  0.95501598  0.49602711  0.78490602  1
  I  I107  1  0.00194409  0.48316908  0.22766546  1
  I  I108  1  0.54148231  0.99448350  0.77811787  1
  I  I109  1  0.49352727  0.97233772  0.22349383  1
  I  I110  1  0.53092575  0.50830844  0.76622796  1
  I  I111  1  0.45860091  0.50144030  0.20894890  1
  N  N112  1  0.21149344  0.24213661  0.81888231  1
  N  N113  1  0.18947313  0.25718716  0.17990376  1
  N  N114  1  0.23001785  0.17839322  0.64932036  1
  N  N115  1  0.24687840  0.78355284  0.82444559  1
  N  N116  1  0.25668559  0.81568284  0.18364343  1
  N  N117  1  0.18127354  0.76826789  0.65632549  1
  N  N118  1  0.76051191  0.27394946  0.17922256  1
  N  N119  1  0.74349963  0.31211513  0.81767724  1
  N  N120  1  0.81810404  0.26984470  0.34744486  1
  N  N121  1  0.70421567  0.74843228  0.17986592  1
  N  N122  1  0.69733938  0.74766226  0.81935629  1
  N  N123  1  0.72803342  0.81902597  0.34664113  1
