# generated using pymatgen
data_H16PbC11S(I2N)2
_symmetry_space_group_name_H-M   'P 1'
_cell_length_a   12.43457247
_cell_length_b   12.42076043
_cell_length_c   16.02994555
_cell_angle_alpha   91.36410285
_cell_angle_beta   92.18214857
_cell_angle_gamma   90.19573410
_symmetry_Int_Tables_number   1
_chemical_formula_structural   H16PbC11S(I2N)2
_chemical_formula_sum   'H64 Pb4 C44 S4 I16 N8'
_cell_volume   2473.25488784
_cell_formula_units_Z   4
loop_
 _symmetry_equiv_pos_site_id
 _symmetry_equiv_pos_as_xyz
  1  'x, y, z'
loop_
 _atom_site_type_symbol
 _atom_site_label
 _atom_site_symmetry_multiplicity
 _atom_site_fract_x
 _atom_site_fract_y
 _atom_site_fract_z
 _atom_site_occupancy
  H  H0  1  0.31759314  0.11505348  0.84631852  1
  H  H1  1  0.31788282  0.24742370  0.86605354  1
  H  H2  1  0.20642174  0.17872799  0.88244980  1
  H  H3  1  0.17464489  0.26570514  0.75222917  1
  H  H4  1  0.18899040  0.12452494  0.73412094  1
  H  H5  1  0.36718821  0.29667374  0.72066730  1
  H  H6  1  0.38785315  0.15573739  0.71003610  1
  H  H7  1  0.29282938  0.39837842  0.59259910  1
  H  H8  1  0.23740166  0.45714375  0.42790504  1
  H  H9  1  0.19651553  0.38944291  0.28335680  1
  H  H10  1  0.16234236  0.10004247  0.22086673  1
  H  H11  1  0.12728967  0.23315473  0.19377109  1
  H  H12  1  0.31859749  0.26743192  0.17075131  1
  H  H13  1  0.26819394  0.16689355  0.11147523  1
  H  H14  1  0.34942146  0.13979036  0.19357125  1
  H  H15  1  0.22504306  0.05998767  0.36236715  1
  H  H16  1  0.11718533  0.68883548  0.84644018  1
  H  H17  1  0.25010349  0.68995941  0.86475916  1
  H  H18  1  0.18172478  0.80143491  0.88413414  1
  H  H19  1  0.26549228  0.82798184  0.75415233  1
  H  H20  1  0.12372798  0.81209042  0.73622812  1
  H  H21  1  0.29365931  0.63280483  0.71826858  1
  H  H22  1  0.15250011  0.61318594  0.70519872  1
  H  H23  1  0.39709131  0.70644221  0.59410123  1
  H  H24  1  0.45638838  0.76167206  0.43246872  1
  H  H25  1  0.38884154  0.80668025  0.28990650  1
  H  H26  1  0.10117568  0.84638362  0.22646386  1
  H  H27  1  0.23591885  0.87715468  0.20272239  1
  H  H28  1  0.26311602  0.68474758  0.17235099  1
  H  H29  1  0.16463631  0.73764322  0.11348695  1
  H  H30  1  0.13413359  0.65833044  0.19201679  1
  H  H31  1  0.05980437  0.77879458  0.36446292  1
  H  H32  1  0.86933294  0.18845828  0.14908283  1
  H  H33  1  0.73760123  0.19955640  0.13506102  1
  H  H34  1  0.81246097  0.30608343  0.11633727  1
  H  H35  1  0.73286692  0.33556508  0.24976611  1
  H  H36  1  0.87450945  0.31861531  0.26337331  1
  H  H37  1  0.70408573  0.13882231  0.27899491  1
  H  H38  1  0.84480749  0.12128481  0.29120126  1
  H  H39  1  0.60102663  0.20908809  0.40566099  1
  H  H40  1  0.54217330  0.26227184  0.56977486  1
  H  H41  1  0.61033858  0.31047020  0.71368629  1
  H  H42  1  0.89935551  0.35551936  0.77447087  1
  H  H43  1  0.76556804  0.38548999  0.80112491  1
  H  H44  1  0.74029148  0.19780107  0.83462021  1
  H  H45  1  0.84276514  0.25263300  0.88825906  1
  H  H46  1  0.86518991  0.16664225  0.80760691  1
  H  H47  1  0.93896449  0.28236338  0.63781914  1
  H  H48  1  0.80105496  0.88560069  0.15367172  1
  H  H49  1  0.80552166  0.75395696  0.13901083  1
  H  H50  1  0.69035561  0.81527306  0.11726726  1
  H  H51  1  0.66996838  0.73247889  0.24899242  1
  H  H52  1  0.68046591  0.87445241  0.26576517  1
  H  H53  1  0.86678804  0.71163331  0.28398310  1
  H  H54  1  0.88158467  0.85338152  0.29551598  1
  H  H55  1  0.79399195  0.60495038  0.40797829  1
  H  H56  1  0.73715306  0.54275696  0.56880139  1
  H  H57  1  0.68921487  0.60823191  0.71006562  1
  H  H58  1  0.65102190  0.89515975  0.77278455  1
  H  H59  1  0.61939014  0.76009131  0.79606680  1
  H  H60  1  0.81455775  0.73250576  0.82763657  1
  H  H61  1  0.75613281  0.82545196  0.88872102  1
  H  H62  1  0.83596494  0.86357330  0.81180974  1
  H  H63  1  0.72197463  0.93874358  0.63676235  1
  Pb  Pb64  1  0.99077071  0.00411211  0.98057057  1
  Pb  Pb65  1  0.99191480  0.50523850  0.00281296  1
  Pb  Pb66  1  0.49016674  0.98989968  0.00602670  1
  Pb  Pb67  1  0.49576336  0.50268896  0.00466418  1
  C  C68  1  0.23199624  0.19880036  0.75370661  1
  C  C69  1  0.32845024  0.22014250  0.69985113  1
  C  C70  1  0.29731047  0.22644667  0.60910397  1
  C  C71  1  0.28233953  0.31810528  0.56448351  1
  C  C72  1  0.25527443  0.29733337  0.47802325  1
  C  C73  1  0.23547463  0.37083595  0.41380555  1
  C  C74  1  0.21357357  0.33267463  0.33302595  1
  C  C75  1  0.21112770  0.22109231  0.31389368  1
  C  C76  1  0.18920185  0.18407101  0.22518822  1
  C  C77  1  0.22834602  0.14632022  0.37680352  1
  C  C78  1  0.25021836  0.18484874  0.45847564  1
  C  C79  1  0.19839008  0.77041657  0.75439337  1
  C  C80  1  0.21790319  0.67187248  0.69798711  1
  C  C81  1  0.22513384  0.70164586  0.60843734  1
  C  C82  1  0.31692449  0.71645429  0.56558537  1
  C  C83  1  0.29657064  0.74462763  0.48041805  1
  C  C84  1  0.37012488  0.76503908  0.41795991  1
  C  C85  1  0.33220696  0.78941410  0.33829286  1
  C  C86  1  0.22068914  0.79368544  0.31851585  1
  C  C87  1  0.18419845  0.81714446  0.23077201  1
  C  C88  1  0.14597830  0.77502104  0.37956363  1
  C  C89  1  0.18417984  0.75087143  0.46015406  1
  C  C90  1  0.79852069  0.27702799  0.24623131  1
  C  C91  1  0.77951800  0.17939811  0.30031791  1
  C  C92  1  0.77271426  0.20799126  0.39091386  1
  C  C93  1  0.68108580  0.21966956  0.43469489  1
  C  C94  1  0.70177865  0.24534517  0.52126057  1
  C  C95  1  0.62846780  0.26504583  0.58464084  1
  C  C96  1  0.66675136  0.29049927  0.66507958  1
  C  C97  1  0.77842502  0.29579753  0.68456434  1
  C  C98  1  0.81670563  0.32458823  0.77189772  1
  C  C99  1  0.85276692  0.27676071  0.62279828  1
  C  C100  1  0.81425342  0.25216993  0.54150201  1
  C  C101  1  0.72490630  0.80179105  0.24797038  1
  C  C102  1  0.82567568  0.78585110  0.30403795  1
  C  C103  1  0.79913385  0.77725675  0.39386402  1
  C  C104  1  0.78467960  0.68464601  0.43659918  1
  C  C105  1  0.75662970  0.70357810  0.52144453  1
  C  C106  1  0.73460335  0.62889884  0.58334719  1
  C  C107  1  0.70889146  0.66562649  0.66236298  1
  C  C108  1  0.70557811  0.77693553  0.68229338  1
  C  C109  1  0.68021632  0.81209414  0.76946995  1
  C  C110  1  0.72590358  0.85271411  0.62175876  1
  C  C111  1  0.75077363  0.81567921  0.54167293  1
  S  S112  1  0.27765595  0.10988636  0.54696752  1
  S  S113  1  0.10893211  0.72269335  0.54618557  1
  S  S114  1  0.88919845  0.22749634  0.45388601  1
  S  S115  1  0.77892708  0.89245392  0.45580426  1
  I  I116  1  0.23645159  0.93785844  0.01757346  1
  I  I117  1  0.24778632  0.55694909  0.00005529  1
  I  I118  1  0.73737960  0.05469309  0.97813658  1
  I  I119  1  0.75361747  0.41953692  0.99555185  1
  I  I120  1  0.06727245  0.24749696  0.98836159  1
  I  I121  1  0.95295903  0.75367936  0.01934074  1
  I  I122  1  0.45123740  0.24701124  0.00537045  1
  I  I123  1  0.58357958  0.75047430  0.99161575  1
  I  I124  1  0.97842745  0.00217292  0.77712559  1
  I  I125  1  0.96207249  0.01290533  0.17682738  1
  I  I126  1  0.96082354  0.57394774  0.80687183  1
  I  I127  1  0.99424435  0.51516586  0.20409163  1
  I  I128  1  0.43990914  0.97099999  0.81021714  1
  I  I129  1  0.50281032  0.01461542  0.20956812  1
  I  I130  1  0.47816095  0.49880462  0.80156133  1
  I  I131  1  0.48748841  0.51123824  0.20157021  1
  N  N132  1  0.26972387  0.18478094  0.84235615  1
  N  N133  1  0.28697474  0.19072389  0.17257888  1
  N  N134  1  0.18684031  0.73658238  0.84264716  1
  N  N135  1  0.18756692  0.71862229  0.17414237  1
  N  N136  1  0.80524703  0.24152511  0.15652378  1
  N  N137  1  0.81613133  0.22941614  0.82844606  1
  N  N138  1  0.75627120  0.81521463  0.15978878  1
  N  N139  1  0.77789952  0.80774386  0.82822359  1
