# generated using pymatgen
data_H10PbC8S(I2N)2
_symmetry_space_group_name_H-M   'P 1'
_cell_length_a   12.79102350
_cell_length_b   12.71279069
_cell_length_c   11.72242771
_cell_angle_alpha   90.20659509
_cell_angle_beta   89.20879197
_cell_angle_gamma   90.09913501
_symmetry_Int_Tables_number   1
_chemical_formula_structural   H10PbC8S(I2N)2
_chemical_formula_sum   'H40 Pb4 C32 S4 I16 N8'
_cell_volume   1905.98250524
_cell_formula_units_Z   4
loop_
 _symmetry_equiv_pos_site_id
 _symmetry_equiv_pos_as_xyz
  1  'x, y, z'
loop_
 _atom_site_type_symbol
 _atom_site_label
 _atom_site_symmetry_multiplicity
 _atom_site_fract_x
 _atom_site_fract_y
 _atom_site_fract_z
 _atom_site_occupancy
  H  H0  1  0.29076083  0.31856772  0.87823293  1
  H  H1  1  0.35885300  0.33743958  0.75845079  1
  H  H2  1  0.33184211  0.21266077  0.80584584  1
  H  H3  1  0.14785942  0.23537211  0.77509803  1
  H  H4  1  0.17076041  0.37066645  0.74168578  1
  H  H5  1  0.23235485  0.09575919  0.64657405  1
  H  H6  1  0.27407329  0.04360640  0.44591379  1
  H  H7  1  0.30547866  0.12443786  0.21713065  1
  H  H8  1  0.29473035  0.29925318  0.12916022  1
  H  H9  1  0.20512427  0.42250502  0.55032728  1
  H  H10  1  0.29710686  0.69211354  0.87336013  1
  H  H11  1  0.32706670  0.62891759  0.75323381  1
  H  H12  1  0.20039632  0.65487431  0.78408829  1
  H  H13  1  0.23795741  0.84645217  0.77467164  1
  H  H14  1  0.37059715  0.81473601  0.74173007  1
  H  H15  1  0.09607039  0.77640802  0.64405034  1
  H  H16  1  0.04425053  0.73979542  0.44373237  1
  H  H17  1  0.12535327  0.70475718  0.21498545  1
  H  H18  1  0.30262104  0.70636803  0.12616918  1
  H  H19  1  0.42293248  0.78644552  0.54660897  1
  H  H20  1  0.70963636  0.18833208  0.12255268  1
  H  H21  1  0.66590153  0.12602334  0.23840613  1
  H  H22  1  0.79574811  0.14728662  0.21826726  1
  H  H23  1  0.76050978  0.34174471  0.22432803  1
  H  H24  1  0.62815733  0.30922871  0.25713113  1
  H  H25  1  0.90249787  0.26648747  0.35224927  1
  H  H26  1  0.95504843  0.22779211  0.55180558  1
  H  H27  1  0.87476205  0.18732452  0.77856694  1
  H  H28  1  0.70107433  0.18885920  0.86943460  1
  H  H29  1  0.57710790  0.28661615  0.45426369  1
  H  H30  1  0.80919287  0.70629310  0.12572290  1
  H  H31  1  0.87125849  0.66904078  0.24184028  1
  H  H32  1  0.84582205  0.79888005  0.22067235  1
  H  H33  1  0.65509827  0.75790036  0.23028242  1
  H  H34  1  0.68946057  0.62492210  0.25890442  1
  H  H35  1  0.72608868  0.90116303  0.36020025  1
  H  H36  1  0.76645199  0.95463456  0.55934877  1
  H  H37  1  0.80944890  0.87518196  0.78328829  1
  H  H38  1  0.81210577  0.69945288  0.87128339  1
  H  H39  1  0.71782106  0.57278230  0.45469978  1
  Pb  Pb40  1  0.01437992  1.00344495  0.00257799  1
  Pb  Pb41  1  0.01057751  0.49204384  0.00409205  1
  Pb  Pb42  1  0.50554239  0.98760693  0.99030200  1
  Pb  Pb43  1  0.51948072  0.49263729  0.99075438  1
  C  C44  1  0.20185076  0.29051006  0.73255503  1
  C  C45  1  0.21951704  0.26208476  0.60927074  1
  C  C46  1  0.23729400  0.15510659  0.57978966  1
  C  C47  1  0.25918325  0.12534858  0.46877287  1
  C  C48  1  0.26212398  0.20373654  0.38394583  1
  C  C49  1  0.28498797  0.19440066  0.26636133  1
  C  C50  1  0.24012862  0.31061324  0.41347228  1
  C  C51  1  0.21977989  0.34068801  0.52685130  1
  C  C52  1  0.28919640  0.78982280  0.73027033  1
  C  C53  1  0.26223960  0.77978479  0.60630124  1
  C  C54  1  0.15538949  0.76939264  0.57687983  1
  C  C55  1  0.12591655  0.75017811  0.46612394  1
  C  C56  1  0.20458722  0.74309893  0.38093770  1
  C  C57  1  0.19561595  0.72113350  0.26353959  1
  C  C58  1  0.31156164  0.75922724  0.41019697  1
  C  C59  1  0.34118805  0.77662805  0.52355218  1
  C  C60  1  0.70953358  0.28481406  0.26845710  1
  C  C61  1  0.73690181  0.27532762  0.39229412  1
  C  C62  1  0.84369215  0.26179803  0.42022739  1
  C  C63  1  0.87365554  0.24157334  0.53047168  1
  C  C64  1  0.79561159  0.23651233  0.61644248  1
  C  C65  1  0.80497736  0.21019572  0.73255950  1
  C  C66  1  0.68905661  0.25691150  0.58917037  1
  C  C67  1  0.65885775  0.27535849  0.47625393  1
  C  C68  1  0.71239947  0.70721424  0.27218311  1
  C  C69  1  0.72266055  0.73426991  0.39648272  1
  C  C70  1  0.73364044  0.84189400  0.42644825  1
  C  C71  1  0.75517586  0.87235431  0.53657463  1
  C  C72  1  0.76399369  0.79367585  0.62011657  1
  C  C73  1  0.79008910  0.80388567  0.73610987  1
  C  C74  1  0.74684364  0.68595542  0.59103758  1
  C  C75  1  0.72708418  0.65528844  0.47826957  1
  S  S76  1  0.24549812  0.39055449  0.29571400  1
  S  S77  1  0.39203375  0.75033697  0.29222320  1
  S  S78  1  0.60979698  0.24776634  0.70826127  1
  S  S79  1  0.75891167  0.60612096  0.70828010  1
  I  I80  1  0.25718951  0.05397638  0.97826422  1
  I  I81  1  0.26161304  0.48416091  0.01079759  1
  I  I82  1  0.75149340  -0.00860116  0.98638100  1
  I  I83  1  0.76189694  0.52185674  0.00031512  1
  I  I84  1  0.95640338  0.25092758  0.01502501  1
  I  I85  1  0.01541947  0.75035195  0.99609461  1
  I  I86  1  0.51635806  0.24452231  0.00063173  1
  I  I87  1  0.47661595  0.74025439  0.99232037  1
  I  I88  1  0.01093305  0.00314750  0.73185179  1
  I  I89  1  0.95369930  0.98607233  0.27258136  1
  I  I90  1  0.03939544  0.53476521  0.73468794  1
  I  I91  1  0.98093524  0.51474647  0.28247283  1
  I  I92  1  0.51030918  0.98455292  0.72466155  1
  I  I93  1  0.51655347  0.01139441  0.27806857  1
  I  I94  1  0.46338885  0.49601039  0.69765619  1
  I  I95  1  0.50931883  0.49172438  0.25335808  1
  N  N96  1  0.30271837  0.28783882  0.79686871  1
  N  N97  1  0.27922515  0.28657220  0.21415384  1
  N  N98  1  0.27619926  0.68547597  0.78873798  1
  N  N99  1  0.28838849  0.72182408  0.21108508  1
  N  N100  1  0.72237039  0.18072889  0.20890429  1
  N  N101  1  0.71323788  0.21288456  0.78658638  1
  N  N102  1  0.81560100  0.72310132  0.21170189  1
  N  N103  1  0.79006384  0.71167013  0.78837141  1
