# generated using pymatgen
data_H13PbC9SI4N3
_symmetry_space_group_name_H-M   'P 1'
_cell_length_a   12.42839796
_cell_length_b   12.11167291
_cell_length_c   14.43405007
_cell_angle_alpha   91.76792263
_cell_angle_beta   92.02490140
_cell_angle_gamma   88.21442973
_symmetry_Int_Tables_number   1
_chemical_formula_structural   H13PbC9SI4N3
_chemical_formula_sum   'H52 Pb4 C36 S4 I16 N12'
_cell_volume   2169.36479119
_cell_formula_units_Z   4
loop_
 _symmetry_equiv_pos_site_id
 _symmetry_equiv_pos_as_xyz
  1  'x, y, z'
loop_
 _atom_site_type_symbol
 _atom_site_label
 _atom_site_symmetry_multiplicity
 _atom_site_fract_x
 _atom_site_fract_y
 _atom_site_fract_z
 _atom_site_occupancy
  H  H0  1  0.36110329  0.18097216  0.79973822  1
  H  H1  1  0.35737346  0.32092630  0.79451907  1
  H  H2  1  0.30515933  0.25911302  0.88402878  1
  H  H3  1  0.16147945  0.32451403  0.78395570  1
  H  H4  1  0.16524434  0.17745347  0.78974733  1
  H  H5  1  0.21508736  0.06083001  0.65655278  1
  H  H6  1  0.23894090  0.04093786  0.48567947  1
  H  H7  1  0.34612927  0.40082495  0.24150703  1
  H  H8  1  0.20492241  0.39393768  0.21936206  1
  H  H9  1  0.30760092  0.26816133  0.12284356  1
  H  H10  1  0.35946844  0.19665688  0.21388749  1
  H  H11  1  0.22864491  0.19642190  0.18774506  1
  H  H12  1  0.21822926  0.41665629  0.64340080  1
  H  H13  1  0.17698554  0.63990486  0.79715435  1
  H  H14  1  0.31221935  0.62908792  0.78797465  1
  H  H15  1  0.26031634  0.69090151  0.88164453  1
  H  H16  1  0.32520284  0.83044881  0.79003514  1
  H  H17  1  0.18235180  0.84145858  0.79467693  1
  H  H18  1  0.06692387  0.78289527  0.66242323  1
  H  H19  1  0.04424127  0.76187729  0.48962870  1
  H  H20  1  0.38348063  0.66677348  0.22652545  1
  H  H21  1  0.37477597  0.81287586  0.21952022  1
  H  H22  1  0.24402779  0.71849855  0.11969320  1
  H  H23  1  0.18163582  0.66818950  0.21130166  1
  H  H24  1  0.18114640  0.80288981  0.19554240  1
  H  H25  1  0.41267403  0.78156800  0.64335220  1
  H  H26  1  0.80926306  0.12248736  0.20622055  1
  H  H27  1  0.67244132  0.13341775  0.20658053  1
  H  H28  1  0.73975085  0.18153591  0.11867805  1
  H  H29  1  0.67641885  0.33309973  0.21481814  1
  H  H30  1  0.81921905  0.32496258  0.20978583  1
  H  H31  1  0.93157717  0.28273336  0.34380964  1
  H  H32  1  0.95246592  0.26518780  0.51601931  1
  H  H33  1  0.60473301  0.15459933  0.76054317  1
  H  H34  1  0.61414286  0.29857917  0.78532082  1
  H  H35  1  0.73706158  0.17719941  0.87623871  1
  H  H36  1  0.80793569  0.14223759  0.78190812  1
  H  H37  1  0.80258119  0.27210096  0.82270056  1
  H  H38  1  0.58562100  0.27548259  0.35790364  1
  H  H39  1  0.85894418  0.82951176  0.20315810  1
  H  H40  1  0.87546399  0.69107668  0.21160672  1
  H  H41  1  0.81362793  0.74300161  0.11774892  1
  H  H42  1  0.68058314  0.66821291  0.20796911  1
  H  H43  1  0.66288912  0.81452800  0.20265297  1
  H  H44  1  0.71774431  0.93572984  0.33611586  1
  H  H45  1  0.73595830  0.95861470  0.50859036  1
  H  H46  1  0.83663964  0.60409390  0.76805883  1
  H  H47  1  0.69485880  0.61857090  0.78082711  1
  H  H48  1  0.79800194  0.74557880  0.87828128  1
  H  H49  1  0.84456251  0.80994861  0.78585818  1
  H  H50  1  0.71479197  0.81579766  0.80667684  1
  H  H51  1  0.72395804  0.58023576  0.35530980  1
  Pb  Pb52  1  -0.00447511  0.01307306  0.99787946  1
  Pb  Pb53  1  0.01111034  0.49906113  0.00001919  1
  Pb  Pb54  1  0.48965471  0.99776652  0.00021750  1
  Pb  Pb55  1  0.51476928  0.50965361  0.99833344  1
  C  C56  1  0.20604783  0.24847523  0.76326361  1
  C  C57  1  0.21734769  0.23935621  0.66001314  1
  C  C58  1  0.22233776  0.13406572  0.61534475  1
  C  C59  1  0.23533754  0.12208997  0.52039289  1
  C  C60  1  0.24348264  0.21732488  0.46853682  1
  C  C61  1  0.26096450  0.32058998  0.34683701  1
  C  C62  1  0.27587709  0.34858340  0.24851337  1
  C  C63  1  0.23749396  0.32338724  0.51367853  1
  C  C64  1  0.22423634  0.33523706  0.60915543  1
  C  C65  1  0.24990108  0.79195000  0.76652015  1
  C  C66  1  0.24060043  0.78121810  0.66254850  1
  C  C67  1  0.13722444  0.77617074  0.61930384  1
  C  C68  1  0.12363941  0.76526313  0.52376037  1
  C  C69  1  0.21531153  0.75994109  0.46991080  1
  C  C70  1  0.31192452  0.74986495  0.34442425  1
  C  C71  1  0.33297576  0.74078838  0.24345590  1
  C  C72  1  0.31959882  0.76530909  0.51331685  1
  C  C73  1  0.33300788  0.77583343  0.60975752  1
  C  C74  1  0.74904159  0.28580421  0.23718446  1
  C  C75  1  0.75801093  0.27828753  0.34092414  1
  C  C76  1  0.86082157  0.27633261  0.38566300  1
  C  C77  1  0.87336214  0.26691257  0.48106979  1
  C  C78  1  0.78119122  0.25907245  0.53337335  1
  C  C79  1  0.68238213  0.24261024  0.65602390  1
  C  C80  1  0.65674965  0.22606873  0.75452358  1
  C  C81  1  0.67747757  0.26223210  0.48835492  1
  C  C82  1  0.66510419  0.27233531  0.39234417  1
  C  C83  1  0.71388308  0.74746739  0.23172865  1
  C  C84  1  0.72222661  0.75717843  0.33579554  1
  C  C85  1  0.72470460  0.86321913  0.37911574  1
  C  C86  1  0.73391086  0.87698551  0.47475891  1
  C  C87  1  0.74015748  0.78262044  0.52873439  1
  C  C88  1  0.75265359  0.68233557  0.65399187  1
  C  C89  1  0.76536625  0.65869677  0.75445682  1
  C  C90  1  0.73670677  0.67572244  0.48516796  1
  C  C91  1  0.72786425  0.66213738  0.38870200  1
  S  S92  1  0.24861584  0.42518873  0.43262467  1
  S  S93  1  0.41621155  0.75853756  0.42880321  1
  S  S94  1  0.57948665  0.25103648  0.57017942  1
  S  S95  1  0.74538047  0.57592994  0.56941862  1
  I  I96  1  0.23930531  0.07790166  0.99495544  1
  I  I97  1  0.26185613  0.44640204  0.00805708  1
  I  I98  1  0.74188547  0.95252935  0.99756136  1
  I  I99  1  0.75695550  0.58086970  0.99498721  1
  I  I100  1  0.91033136  0.26306031  0.01180071  1
  I  I101  1  0.04856522  0.75598659  0.99187256  1
  I  I102  1  0.55067058  0.25043651  0.99485772  1
  I  I103  1  0.41026998  0.75316125  0.00512111  1
  I  I104  1  0.96272274  0.99503407  0.77478245  1
  I  I105  1  0.98253724  0.99754813  0.22404694  1
  I  I106  1  0.02555753  0.50653225  0.77629101  1
  I  I107  1  0.01726854  0.53300827  0.22570516  1
  I  I108  1  0.47775202  0.99203073  0.77874101  1
  I  I109  1  0.49815984  0.03303305  0.22828111  1
  I  I110  1  0.47354068  0.49614308  0.76784783  1
  I  I111  1  0.52720462  0.50166012  0.21715839  1
  N  N112  1  0.31468330  0.25254646  0.81303762  1
  N  N113  1  0.25690522  0.21918552  0.37382230  1
  N  N114  1  0.29420633  0.24650309  0.19037280  1
  N  N115  1  0.24895945  0.68103136  0.81039331  1
  N  N116  1  0.21421087  0.75115748  0.37432153  1
  N  N117  1  0.22882210  0.73190691  0.18944272  1
  N  N118  1  0.74229111  0.17350833  0.18991318  1
  N  N119  1  0.78069984  0.24796355  0.62844321  1
  N  N120  1  0.75674696  0.20326576  0.81149858  1
  N  N121  1  0.82220587  0.75405350  0.18912683  1
  N  N122  1  0.74931639  0.78302085  0.62440992  1
  N  N123  1  0.78192757  0.76367003  0.80920727  1
