# generated using pymatgen
data_H13PbC9SI4N3
_symmetry_space_group_name_H-M   'P 1'
_cell_length_a   12.06564069
_cell_length_b   12.40567029
_cell_length_c   14.85241921
_cell_angle_alpha   88.84837079
_cell_angle_beta   89.10041084
_cell_angle_gamma   90.18768114
_symmetry_Int_Tables_number   1
_chemical_formula_structural   H13PbC9SI4N3
_chemical_formula_sum   'H52 Pb4 C36 S4 I16 N12'
_cell_volume   2222.40780346
_cell_formula_units_Z   4
loop_
 _symmetry_equiv_pos_site_id
 _symmetry_equiv_pos_as_xyz
  1  'x, y, z'
loop_
 _atom_site_type_symbol
 _atom_site_label
 _atom_site_symmetry_multiplicity
 _atom_site_fract_x
 _atom_site_fract_y
 _atom_site_fract_z
 _atom_site_occupancy
  H  H0  1  0.26019772  0.18935215  0.87684679  1
  H  H1  1  0.33412739  0.14636741  0.78859729  1
  H  H2  1  0.33666987  0.27587603  0.81573585  1
  H  H3  1  0.14118380  0.29874112  0.78573282  1
  H  H4  1  0.13207829  0.15963016  0.76130898  1
  H  H5  1  0.21113232  0.42939308  0.67881698  1
  H  H6  1  0.29348085  0.41927288  0.35905436  1
  H  H7  1  0.38168788  0.17431313  0.23401761  1
  H  H8  1  0.35567492  0.31529887  0.22171575  1
  H  H9  1  0.25205186  0.21132402  0.12074247  1
  H  H10  1  0.18494842  0.14166421  0.20328504  1
  H  H11  1  0.16438219  0.27564922  0.19125314  1
  H  H12  1  0.21663960  0.09154234  0.61372734  1
  H  H13  1  0.17299771  0.75155461  0.87221458  1
  H  H14  1  0.13568383  0.67870386  0.78391889  1
  H  H15  1  0.26436466  0.67400434  0.82218071  1
  H  H16  1  0.30463941  0.85782799  0.78273237  1
  H  H17  1  0.16338380  0.87737304  0.75442666  1
  H  H18  1  0.43667527  0.79389623  0.67533737  1
  H  H19  1  0.42143214  0.70871134  0.35898647  1
  H  H20  1  0.16048627  0.63373738  0.23475079  1
  H  H21  1  0.30655508  0.64446349  0.22343631  1
  H  H22  1  0.21829630  0.76154247  0.12032194  1
  H  H23  1  0.14834059  0.82866098  0.20049542  1
  H  H24  1  0.28722452  0.83793873  0.19342698  1
  H  H25  1  0.08793150  0.78665621  0.61216245  1
  H  H26  1  0.81759741  0.27646756  0.12408380  1
  H  H27  1  0.86108116  0.19570540  0.20904675  1
  H  H28  1  0.73161774  0.18869829  0.17270507  1
  H  H29  1  0.68810589  0.36824659  0.21865873  1
  H  H30  1  0.83008108  0.38780882  0.24572788  1
  H  H31  1  0.55957359  0.28805763  0.32322781  1
  H  H32  1  0.57579085  0.21096857  0.64307107  1
  H  H33  1  0.83584443  0.14925665  0.77256708  1
  H  H34  1  0.68942672  0.15839640  0.78307221  1
  H  H35  1  0.78427235  0.27942018  0.87982021  1
  H  H36  1  0.84560282  0.34663109  0.79424549  1
  H  H37  1  0.70663439  0.35054622  0.80721665  1
  H  H38  1  0.90785701  0.29711534  0.38715639  1
  H  H39  1  0.73519564  0.80015247  0.12000229  1
  H  H40  1  0.81587653  0.85164416  0.20185351  1
  H  H41  1  0.82020147  0.72153141  0.17685503  1
  H  H42  1  0.62720653  0.69363330  0.22032251  1
  H  H43  1  0.61755844  0.83257286  0.24492009  1
  H  H44  1  0.70770473  0.56533851  0.32204198  1
  H  H45  1  0.79297337  0.57780551  0.63905775  1
  H  H46  1  0.87439849  0.82495068  0.76333650  1
  H  H47  1  0.85036993  0.68373032  0.77668359  1
  H  H48  1  0.73858693  0.78983663  0.87664223  1
  H  H49  1  0.67324552  0.85323998  0.79205393  1
  H  H50  1  0.65812125  0.72059912  0.80962818  1
  H  H51  1  0.70807463  0.90334329  0.38666789  1
  Pb  Pb52  1  0.97984907  0.98891451  -0.00014911  1
  Pb  Pb53  1  0.02404830  0.48592200  0.00490222  1
  Pb  Pb54  1  0.49331804  0.98829161  0.00395220  1
  Pb  Pb55  1  0.50356747  0.48751754  0.00432539  1
  C  C56  1  0.18507006  0.23155686  0.75414162  1
  C  C57  1  0.21383730  0.25736524  0.65778991  1
  C  C58  1  0.22389142  0.36644584  0.62925539  1
  C  C59  1  0.25828195  0.32153894  0.48352270  1
  C  C60  1  0.28182285  0.33976506  0.38998058  1
  C  C61  1  0.29078013  0.24601684  0.34352836  1
  C  C62  1  0.32073084  0.23813183  0.24638570  1
  C  C63  1  0.24949471  0.20914588  0.50564283  1
  C  C64  1  0.22614364  0.17647564  0.59437300  1
  C  C65  1  0.23309120  0.82078736  0.75042542  1
  C  C66  1  0.25925810  0.79088703  0.65534815  1
  C  C67  1  0.37107086  0.78049817  0.62672960  1
  C  C68  1  0.32278425  0.74443421  0.48259640  1
  C  C69  1  0.34003853  0.72051839  0.38973406  1
  C  C70  1  0.24282623  0.71232568  0.34403560  1
  C  C71  1  0.23175330  0.68647037  0.24710945  1
  C  C72  1  0.20748463  0.75333301  0.50502059  1
  C  C73  1  0.17511878  0.77744982  0.59290202  1
  C  C74  1  0.76096703  0.33002079  0.24894355  1
  C  C75  1  0.73688491  0.29284425  0.34373480  1
  C  C76  1  0.62550163  0.27685047  0.37226729  1
  C  C77  1  0.67445605  0.24454711  0.51786081  1
  C  C78  1  0.65710473  0.22403658  0.61202070  1
  C  C79  1  0.75379955  0.22244795  0.65895125  1
  C  C80  1  0.76403768  0.20045285  0.75740878  1
  C  C81  1  0.78939446  0.25799009  0.49545810  1
  C  C82  1  0.82129293  0.28283997  0.40670784  1
  C  C83  1  0.67224843  0.76205685  0.24853052  1
  C  C84  1  0.70737706  0.73748045  0.34287565  1
  C  C85  1  0.72120484  0.62874945  0.37086170  1
  C  C86  1  0.75791427  0.67480284  0.51504791  1
  C  C87  1  0.78138492  0.65707621  0.60811599  1
  C  C88  1  0.78822365  0.75102064  0.65440597  1
  C  C89  1  0.81490076  0.75961257  0.75124461  1
  C  C90  1  0.74662183  0.78687254  0.49324405  1
  C  C91  1  0.72027518  0.81879031  0.40556251  1
  S  S92  1  0.27174543  0.13082165  0.41201499  1
  S  S93  1  0.12568690  0.73176937  0.41249052  1
  S  S94  1  0.87106456  0.24376640  0.58983065  1
  S  S95  1  0.76722414  0.86585151  0.58637627  1
  I  I96  1  0.23655017  0.95051097  0.98165191  1
  I  I97  1  0.26351118  0.59658240  0.00649017  1
  I  I98  1  0.73630784  0.08723829  0.99984922  1
  I  I99  1  0.76415318  0.44790110  0.01981769  1
  I  I100  1  0.05214038  0.23872578  0.98185909  1
  I  I101  1  0.93557562  0.73951249  0.99158768  1
  I  I102  1  0.42471098  0.24437881  0.01246763  1
  I  I103  1  0.57426870  0.74750590  0.00952650  1
  I  I104  1  0.98515156  0.99762297  0.78688825  1
  I  I105  1  0.98295949  0.98915003  0.22594982  1
  I  I106  1  0.00391916  0.50419293  0.78494570  1
  I  I107  1  0.04909376  0.43812612  0.21761724  1
  I  I108  1  0.50579515  0.00079522  0.78326517  1
  I  I109  1  0.44610156  0.96720569  0.21737255  1
  I  I110  1  0.53048000  0.47219852  0.78663333  1
  I  I111  1  0.49118697  0.50184949  0.21636470  1
  N  N112  1  0.28522615  0.20946612  0.81146189  1
  N  N113  1  0.24494406  0.39930764  0.54501717  1
  N  N114  1  0.22359917  0.21400690  0.18724115  1
  N  N115  1  0.19930746  0.72561246  0.80951659  1
  N  N116  1  0.40357560  0.75833134  0.54320820  1
  N  N117  1  0.21973225  0.78510937  0.18705244  1
  N  N118  1  0.79526235  0.24139439  0.18613638  1
  N  N119  1  0.59351648  0.25294422  0.45636055  1
  N  N120  1  0.77625769  0.30057650  0.81238257  1
  N  N121  1  0.76740020  0.78592361  0.18391804  1
  N  N122  1  0.74596731  0.59664384  0.45400949  1
  N  N123  1  0.71515880  0.78281101  0.81001240  1
