# generated using pymatgen
data_H13PbC10SI4N2F
_symmetry_space_group_name_H-M   'P 1'
_cell_length_a   12.50482565
_cell_length_b   12.32683446
_cell_length_c   14.74608446
_cell_angle_alpha   90.67149471
_cell_angle_beta   88.79451047
_cell_angle_gamma   88.20453516
_symmetry_Int_Tables_number   1
_chemical_formula_structural   H13PbC10SI4N2F
_chemical_formula_sum   'H52 Pb4 C40 S4 I16 N8 F4'
_cell_volume   2271.24086671
_cell_formula_units_Z   4
loop_
 _symmetry_equiv_pos_site_id
 _symmetry_equiv_pos_as_xyz
  1  'x, y, z'
loop_
 _atom_site_type_symbol
 _atom_site_label
 _atom_site_symmetry_multiplicity
 _atom_site_fract_x
 _atom_site_fract_y
 _atom_site_fract_z
 _atom_site_occupancy
  H  H0  1  0.16708343  0.34934622  0.79266278  1
  H  H1  1  0.15785944  0.21302926  0.80048104  1
  H  H2  1  0.21712438  0.28326774  0.88117355  1
  H  H3  1  0.36640789  0.32330619  0.78420016  1
  H  H4  1  0.34535057  0.18022383  0.78232084  1
  H  H5  1  0.28818432  0.08812743  0.63365494  1
  H  H6  1  0.24864820  0.04003769  0.44728802  1
  H  H7  1  0.20726500  0.42038977  0.25044626  1
  H  H8  1  0.12248837  0.31031414  0.22949510  1
  H  H9  1  0.25728671  0.31784903  0.11606316  1
  H  H10  1  0.35704132  0.31292043  0.19038571  1
  H  H11  1  0.28095521  0.20465253  0.17545196  1
  H  H12  1  0.24708903  0.44458306  0.40693335  1
  H  H13  1  0.33966122  0.83668867  0.79774256  1
  H  H14  1  0.20835140  0.86704379  0.80303902  1
  H  H15  1  0.26536828  0.79563990  0.88552301  1
  H  H16  1  0.29898654  0.63906976  0.78914294  1
  H  H17  1  0.16076957  0.67805807  0.78767803  1
  H  H18  1  0.07855289  0.71924440  0.63553500  1
  H  H19  1  0.03871112  0.74638251  0.44693540  1
  H  H20  1  0.42160241  0.79447471  0.25531346  1
  H  H21  1  0.30979024  0.88202558  0.23553423  1
  H  H22  1  0.32633726  0.75414585  0.11795087  1
  H  H23  1  0.32918956  0.64660520  0.18757377  1
  H  H24  1  0.21738168  0.72532655  0.17669436  1
  H  H25  1  0.43888852  0.75756858  0.41166297  1
  H  H26  1  0.63455141  0.31415050  0.19943154  1
  H  H27  1  0.76476029  0.33788870  0.17868550  1
  H  H28  1  0.69713470  0.25342949  0.11080239  1
  H  H29  1  0.68815019  0.11649421  0.21729117  1
  H  H30  1  0.82346789  0.15818879  0.21050258  1
  H  H31  1  0.91035250  0.21217075  0.35858340  1
  H  H32  1  0.95565539  0.24532294  0.54772515  1
  H  H33  1  0.57508650  0.28009512  0.74881154  1
  H  H34  1  0.67582691  0.37393938  0.76984257  1
  H  H35  1  0.66589260  0.23822929  0.88226893  1
  H  H36  1  0.69603060  0.13765035  0.80966859  1
  H  H37  1  0.78610399  0.23178132  0.83004057  1
  H  H38  1  0.55588694  0.25238557  0.59264011  1
  H  H39  1  0.73175744  0.62417383  0.19213459  1
  H  H40  1  0.68226690  0.75080366  0.17659277  1
  H  H41  1  0.78571354  0.70351592  0.11294781  1
  H  H42  1  0.90526250  0.69258476  0.22950302  1
  H  H43  1  0.85208430  0.82757963  0.22162724  1
  H  H44  1  0.79144459  0.91669350  0.36814683  1
  H  H45  1  0.75311219  0.96751491  0.55610083  1
  H  H46  1  0.71217072  0.58853356  0.75271429  1
  H  H47  1  0.62465736  0.70173288  0.77506167  1
  H  H48  1  0.75683239  0.67904345  0.88756837  1
  H  H49  1  0.85773852  0.68989355  0.81398065  1
  H  H50  1  0.77377454  0.79771826  0.83646973  1
  H  H51  1  0.74556729  0.56322286  0.59575580  1
  Pb  Pb52  1  0.99853902  0.00355945  0.99656717  1
  Pb  Pb53  1  0.98222503  0.48936619  0.99361334  1
  Pb  Pb54  1  0.48430240  0.00400378  0.99922609  1
  Pb  Pb55  1  0.48479170  0.51198041  0.00127021  1
  C  C56  1  0.31301337  0.25983053  0.76132806  1
  C  C57  1  0.29821082  0.26005289  0.66144630  1
  C  C58  1  0.28528320  0.17039311  0.60739404  1
  C  C59  1  0.26602678  0.19746259  0.51514692  1
  C  C60  1  0.24820697  0.12801326  0.44078886  1
  C  C61  1  0.22945739  0.17521345  0.35823877  1
  C  C62  1  0.22818972  0.28807692  0.34316798  1
  C  C63  1  0.20278193  0.33175018  0.25126268  1
  C  C64  1  0.24709162  0.35692987  0.41646561  1
  C  C65  1  0.26499859  0.31190447  0.50172335  1
  C  C66  1  0.24131219  0.70173717  0.76655047  1
  C  C67  1  0.24671048  0.71445500  0.66631834  1
  C  C68  1  0.16081023  0.72277769  0.61043415  1
  C  C69  1  0.19116357  0.73651864  0.51760651  1
  C  C70  1  0.12566647  0.74837348  0.44154274  1
  C  C71  1  0.17542791  0.76429917  0.35883588  1
  C  C72  1  0.28709676  0.76984194  0.34546795  1
  C  C73  1  0.33399256  0.79913897  0.25508729  1
  C  C74  1  0.35214863  0.75498356  0.42031884  1
  C  C75  1  0.30453527  0.73880082  0.50557630  1
  C  C76  1  0.74202845  0.18242869  0.23363490  1
  C  C77  1  0.74093821  0.20646043  0.33294952  1
  C  C78  1  0.82884412  0.21734098  0.38617014  1
  C  C79  1  0.80148956  0.23400387  0.48004444  1
  C  C80  1  0.86867606  0.24698765  0.55489894  1
  C  C81  1  0.82069150  0.26202255  0.63927787  1
  C  C82  1  0.70909840  0.26500474  0.65560408  1
  C  C83  1  0.66177285  0.29018357  0.74780497  1
  C  C84  1  0.64255451  0.25094004  0.58191442  1
  C  C85  1  0.68837570  0.23594723  0.49520025  1
  C  C86  1  0.83358433  0.74473311  0.24242361  1
  C  C87  1  0.79962846  0.74401135  0.33965364  1
  C  C88  1  0.78471526  0.83459659  0.39391152  1
  C  C89  1  0.76491719  0.80908489  0.48693821  1
  C  C90  1  0.75163113  0.87956712  0.56255151  1
  C  C91  1  0.73774711  0.83345867  0.64637368  1
  C  C92  1  0.73345225  0.72080455  0.66117538  1
  C  C93  1  0.70651892  0.67739307  0.75309011  1
  C  C94  1  0.74719835  0.65090256  0.58641056  1
  C  C95  1  0.76350857  0.69482489  0.50033433  1
  S  S96  1  0.28916815  0.38144436  0.60190306  1
  S  S97  1  0.36893675  0.72088803  0.60756070  1
  S  S98  1  0.62072963  0.21515289  0.39543385  1
  S  S99  1  0.78877864  0.62324955  0.39963972  1
  I  I100  1  0.24555261  0.93040612  0.02836586  1
  I  I101  1  0.23349362  0.53057467  0.02470621  1
  I  I102  1  0.74478743  0.02359087  0.97695694  1
  I  I103  1  0.73699056  0.46262853  0.95987474  1
  I  I104  1  0.07329829  0.24434604  0.01507443  1
  I  I105  1  0.95085407  0.74364299  0.00905751  1
  I  I106  1  0.47710787  0.25867055  0.98173023  1
  I  I107  1  0.55248063  0.75579974  0.01975484  1
  I  I108  1  0.07363951  0.02003785  0.77467819  1
  I  I109  1  0.98314466  0.00690207  0.20516277  1
  I  I110  1  0.00425738  0.51251100  0.77755038  1
  I  I111  1  0.91529961  0.45751085  0.20757164  1
  I  I112  1  0.47650620  0.98545326  0.77972359  1
  I  I113  1  0.48075790  0.05230594  0.21226692  1
  I  I114  1  0.47119327  0.51803611  0.79045298  1
  I  I115  1  0.49172881  0.49086372  0.22796551  1
  N  N116  1  0.20769457  0.27852788  0.81154884  1
  N  N117  1  0.27986201  0.28848957  0.17865452  1
  N  N118  1  0.26557387  0.80498070  0.81574224  1
  N  N119  1  0.29961134  0.72555499  0.18006332  1
  N  N120  1  0.70662038  0.27791115  0.17722892  1
  N  N121  1  0.70587773  0.21953432  0.82125840  1
  N  N122  1  0.75156005  0.70319599  0.17827378  1
  N  N123  1  0.77862937  0.71466999  0.82687153  1
  F  F124  1  0.21103124  0.10954949  0.28500696  1
  F  F125  1  0.11290857  0.77528035  0.28346110  1
  F  F126  1  0.88433034  0.27443848  0.71340571  1
  F  F127  1  0.72889859  0.90031984  0.72153457  1
