# generated using pymatgen
data_H9PbC6I4N2F
_symmetry_space_group_name_H-M   'P 1'
_cell_length_a   12.42055839
_cell_length_b   12.04999612
_cell_length_c   10.82154624
_cell_angle_alpha   88.57633746
_cell_angle_beta   88.95756939
_cell_angle_gamma   86.09675159
_symmetry_Int_Tables_number   1
_chemical_formula_structural   H9PbC6I4N2F
_chemical_formula_sum   'H36 Pb4 C24 I16 N8 F4'
_cell_volume   1615.15894118
_cell_formula_units_Z   4
loop_
 _symmetry_equiv_pos_site_id
 _symmetry_equiv_pos_as_xyz
  1  'x, y, z'
loop_
 _atom_site_type_symbol
 _atom_site_label
 _atom_site_symmetry_multiplicity
 _atom_site_fract_x
 _atom_site_fract_y
 _atom_site_fract_z
 _atom_site_occupancy
  H  H0  1  0.13476127  0.33292648  0.71627135  1
  H  H1  1  0.20113091  0.26709213  0.83250657  1
  H  H2  1  0.12844581  0.19217404  0.73769633  1
  H  H3  1  0.33698091  0.29387904  0.68632402  1
  H  H4  1  0.31010958  0.15008202  0.68548677  1
  H  H5  1  0.24493864  0.06944460  0.49500410  1
  H  H6  1  0.21285644  0.09832179  0.26542778  1
  H  H7  1  0.20916532  0.27997770  0.18140871  1
  H  H8  1  0.22527939  0.44131530  0.29026899  1
  H  H9  1  0.35110556  0.82982889  0.72043835  1
  H  H10  1  0.26146306  0.79255840  0.82947720  1
  H  H11  1  0.22148063  0.88465738  0.71923219  1
  H  H12  1  0.28430089  0.64243872  0.68978469  1
  H  H13  1  0.15054019  0.70674014  0.69039990  1
  H  H14  1  0.07442453  0.72082784  0.48953830  1
  H  H15  1  0.09893968  0.74340325  0.25795278  1
  H  H16  1  0.27115277  0.76867279  0.17696768  1
  H  H17  1  0.42768999  0.77913026  0.29075970  1
  H  H18  1  0.67468176  0.37475577  0.28986836  1
  H  H19  1  0.74374769  0.31628539  0.17178826  1
  H  H20  1  0.80862288  0.39528949  0.26915705  1
  H  H21  1  0.73424510  0.16677950  0.30639179  1
  H  H22  1  0.86763236  0.21039747  0.31593669  1
  H  H23  1  0.93375942  0.26553562  0.51786411  1
  H  H24  1  0.89561152  0.27930187  0.74823006  1
  H  H25  1  0.71773744  0.26667407  0.82129640  1
  H  H26  1  0.56773139  0.24682969  0.70081885  1
  H  H27  1  0.70063851  0.64073925  0.26097802  1
  H  H28  1  0.72259367  0.74872245  0.16342014  1
  H  H29  1  0.62390180  0.76211630  0.26880400  1
  H  H30  1  0.85856004  0.73515149  0.31913292  1
  H  H31  1  0.77801281  0.86368595  0.31470876  1
  H  H32  1  0.75814426  0.93402269  0.51388176  1
  H  H33  1  0.73141674  0.90297799  0.74440980  1
  H  H34  1  0.71138058  0.72263458  0.82052724  1
  H  H35  1  0.70740541  0.56334250  0.70259355  1
  Pb  Pb36  1  1.00079346  0.98868513  0.00477961  1
  Pb  Pb37  1  0.99233528  0.50998835  0.98501815  1
  Pb  Pb38  1  0.50485393  -0.00043821  0.01185864  1
  Pb  Pb39  1  0.48686326  0.48340447  0.00360149  1
  C  C40  1  0.27748275  0.23482839  0.66185588  1
  C  C41  1  0.25336564  0.24550386  0.52617588  1
  C  C42  1  0.24094397  0.15276779  0.45352130  1
  C  C43  1  0.22311930  0.16612640  0.32778325  1
  C  C44  1  0.22941926  0.36197098  0.34045574  1
  C  C45  1  0.24623853  0.35007027  0.46623814  1
  C  C46  1  0.23449282  0.71813619  0.66269931  1
  C  C47  1  0.24333693  0.73778797  0.52541592  1
  C  C48  1  0.15363426  0.73414294  0.44950481  1
  C  C49  1  0.16467169  0.74628645  0.32234546  1
  C  C50  1  0.35249450  0.76529679  0.33954973  1
  C  C51  1  0.34261819  0.75353936  0.46658456  1
  C  C52  1  0.78262352  0.23337837  0.33806067  1
  C  C53  1  0.76608838  0.24843057  0.47491720  1
  C  C54  1  0.85185604  0.26166281  0.55431289  1
  C  C55  1  0.83342350  0.26936333  0.68064519  1
  C  C56  1  0.64591169  0.25189036  0.65538384  1
  C  C57  1  0.66294576  0.24495917  0.52890417  1
  C  C58  1  0.77792988  0.77492559  0.33936531  1
  C  C59  1  0.75051912  0.75977947  0.47411848  1
  C  C60  1  0.74794381  0.85096358  0.55206245  1
  C  C61  1  0.73241243  0.83656780  0.67828262  1
  C  C62  1  0.71917722  0.64273135  0.65617246  1
  C  C63  1  0.73462786  0.65599153  0.53001663  1
  I  I64  1  0.25103792  0.05607674  0.00806786  1
  I  I65  1  0.24314985  0.41410452  0.99878198  1
  I  I66  1  0.76228772  0.89927870  0.00198476  1
  I  I67  1  0.73627140  0.54596133  0.98532042  1
  I  I68  1  0.95069009  0.25309824  0.00879203  1
  I  I69  1  0.10711753  0.74156886  0.98929098  1
  I  I70  1  0.60598423  0.23702750  0.01392950  1
  I  I71  1  0.44767753  0.74701387  0.00679947  1
  I  I72  1  0.04750824  0.01133440  0.69082938  1
  I  I73  1  0.99141560  0.98779716  0.29345416  1
  I  I74  1  0.00295825  0.50631120  0.68768992  1
  I  I75  1  0.96929237  0.51150279  0.28450103  1
  I  I76  1  0.49249939  0.99741369  0.71225336  1
  I  I77  1  0.53510561  0.98209113  0.30560270  1
  I  I78  1  0.47785922  0.49208695  0.71387180  1
  I  I79  1  0.50298041  0.49844254  0.30512274  1
  N  N80  1  0.17885838  0.25858955  0.74111336  1
  N  N81  1  0.21864739  0.26918745  0.27632018  1
  N  N82  1  0.27116039  0.81208624  0.73582166  1
  N  N83  1  0.26281283  0.76141512  0.27213962  1
  N  N84  1  0.75019627  0.33660793  0.26406257  1
  N  N85  1  0.73234145  0.26349891  0.72624605  1
  N  N86  1  0.70133103  0.72630021  0.25431765  1
  N  N87  1  0.71957072  0.73379735  0.72568453  1
  F  F88  1  0.25664000  0.44247791  0.53110524  1
  F  F89  1  0.43238670  0.75615645  0.53462557  1
  F  F90  1  0.57734206  0.23374678  0.45712790  1
  F  F91  1  0.73576700  0.56397109  0.46076060  1
