# generated using pymatgen
data_H9PbC6I4N2F
_symmetry_space_group_name_H-M   'P 1'
_cell_length_a   12.46522615
_cell_length_b   12.31243045
_cell_length_c   10.64025449
_cell_angle_alpha   92.40212813
_cell_angle_beta   91.78959980
_cell_angle_gamma   89.12565890
_symmetry_Int_Tables_number   1
_chemical_formula_structural   H9PbC6I4N2F
_chemical_formula_sum   'H36 Pb4 C24 I16 N8 F4'
_cell_volume   1630.64683703
_cell_formula_units_Z   4
loop_
 _symmetry_equiv_pos_site_id
 _symmetry_equiv_pos_as_xyz
  1  'x, y, z'
loop_
 _atom_site_type_symbol
 _atom_site_label
 _atom_site_symmetry_multiplicity
 _atom_site_fract_x
 _atom_site_fract_y
 _atom_site_fract_z
 _atom_site_occupancy
  H  H0  1  0.29712313  0.24152975  0.83684850  1
  H  H1  1  0.35082372  0.31179659  0.72413796  1
  H  H2  1  0.35869825  0.17284728  0.72109806  1
  H  H3  1  0.16481973  0.15921293  0.68819494  1
  H  H4  1  0.15528645  0.30506106  0.69572694  1
  H  H5  1  0.24533041  0.06217672  0.49864297  1
  H  H6  1  0.29455872  0.07728971  0.27020028  1
  H  H7  1  0.30675452  0.25015567  0.18862207  1
  H  H8  1  0.21168708  0.41421699  0.52171768  1
  H  H9  1  0.25459141  0.70489566  0.83414848  1
  H  H10  1  0.31848602  0.63796354  0.71814356  1
  H  H11  1  0.18348939  0.64069016  0.71919828  1
  H  H12  1  0.17580484  0.83703460  0.69437998  1
  H  H13  1  0.31862202  0.84002823  0.70060738  1
  H  H14  1  0.07643993  0.76282155  0.50294744  1
  H  H15  1  0.08563018  0.72715605  0.26739331  1
  H  H16  1  0.25401862  0.71237882  0.17634559  1
  H  H17  1  0.42431883  0.78188796  0.51544560  1
  H  H18  1  0.75910732  0.21844919  0.16027217  1
  H  H19  1  0.68815744  0.15190629  0.26461430  1
  H  H20  1  0.82272610  0.14000953  0.26593997  1
  H  H21  1  0.84230751  0.33547977  0.31817105  1
  H  H22  1  0.69999655  0.34892081  0.31363243  1
  H  H23  1  0.93831798  0.25784850  0.50154102  1
  H  H24  1  0.92816562  0.22159128  0.73395015  1
  H  H25  1  0.75857212  0.21188073  0.82180823  1
  H  H26  1  0.59016750  0.28165851  0.48749729  1
  H  H27  1  0.77629506  0.74564215  0.15902327  1
  H  H28  1  0.84538933  0.67930098  0.27053337  1
  H  H29  1  0.84360830  0.81759669  0.27192421  1
  H  H30  1  0.65247530  0.82564030  0.30765365  1
  H  H31  1  0.64977706  0.67986691  0.30040750  1
  H  H32  1  0.73293034  0.92589099  0.49551100  1
  H  H33  1  0.78040564  0.91587512  0.72872096  1
  H  H34  1  0.79937593  0.74473670  0.81568016  1
  H  H35  1  0.71803073  0.57334759  0.47819616  1
  Pb  Pb36  1  0.01453581  0.99151136  0.00256846  1
  Pb  Pb37  1  0.00193509  0.49207569  0.99725761  1
  Pb  Pb38  1  0.50870700  0.98707194  0.99388884  1
  Pb  Pb39  1  0.51164631  0.49383201  0.01414111  1
  C  C40  1  0.20495165  0.23460404  0.66578200  1
  C  C41  1  0.22696631  0.23727717  0.52774903  1
  C  C42  1  0.24810266  0.14110732  0.45654651  1
  C  C43  1  0.27503917  0.14702479  0.33202374  1
  C  C44  1  0.25539125  0.33765562  0.34588263  1
  C  C45  1  0.22959869  0.33768102  0.47105856  1
  C  C46  1  0.24897611  0.79165734  0.66815595  1
  C  C47  1  0.24995893  0.77119058  0.52781204  1
  C  C48  1  0.15347425  0.75830968  0.45760584  1
  C  C49  1  0.15608497  0.73977243  0.32871630  1
  C  C50  1  0.34451415  0.75060568  0.33686172  1
  C  C51  1  0.34776970  0.76844952  0.46576003  1
  C  C52  1  0.76757216  0.29456938  0.33873645  1
  C  C53  1  0.76514498  0.26957932  0.47593183  1
  C  C54  1  0.86114320  0.25421136  0.54585461  1
  C  C55  1  0.85816178  0.23491516  0.67274541  1
  C  C56  1  0.66942925  0.24791422  0.66330609  1
  C  C57  1  0.66672962  0.26700063  0.53632324  1
  C  C58  1  0.69755270  0.75116645  0.33036037  1
  C  C59  1  0.72490851  0.75015095  0.46900432  1
  C  C60  1  0.74085252  0.84778369  0.53948849  1
  C  C61  1  0.76649273  0.84466494  0.66659427  1
  C  C62  1  0.75704220  0.65343103  0.65597678  1
  C  C63  1  0.73270957  0.65077389  0.52849281  1
  I  I64  1  0.26155567  0.92282174  0.02535332  1
  I  I65  1  0.25037271  0.55914714  0.01709594  1
  I  I66  1  0.75637829  0.04602787  0.96344651  1
  I  I67  1  0.75133854  0.40795639  0.00315292  1
  I  I68  1  0.05636597  0.24229277  0.02772570  1
  I  I69  1  0.94110300  0.74318868  0.98527137  1
  I  I70  1  0.43640031  0.24280912  0.02471185  1
  I  I71  1  0.58477656  0.73811006  0.97206618  1
  I  I72  1  0.01527821  0.98847333  0.70584156  1
  I  I73  1  0.95784890  0.98710421  0.30883050  1
  I  I74  1  0.03448407  0.50715050  0.69345267  1
  I  I75  1  0.97276883  0.52136119  0.29909498  1
  I  I76  1  0.47147325  -0.00035142  0.69401748  1
  I  I77  1  0.54293032  0.02560809  0.30137536  1
  I  I78  1  0.44927857  0.48657871  0.69531391  1
  I  I79  1  0.52536294  0.48818907  0.30841114  1
  N  N80  1  0.30847558  0.24052104  0.74047814  1
  N  N81  1  0.27832341  0.24533597  0.28006277  1
  N  N82  1  0.25170786  0.68878973  0.73763537  1
  N  N83  1  0.25151944  0.73536260  0.27189560  1
  N  N84  1  0.75908068  0.19552806  0.25299429  1
  N  N85  1  0.76213953  0.23165164  0.72796047  1
  N  N86  1  0.79651438  0.74821261  0.25434757  1
  N  N87  1  0.77430161  0.74753794  0.72136496  1
  F  F88  1  0.25851764  0.42810833  0.28309646  1
  F  F89  1  0.43138666  0.74911099  0.26761611  1
  F  F90  1  0.58230515  0.24541158  0.73149320  1
  F  F91  1  0.76301668  0.56450434  0.72239279  1
