# generated using pymatgen
data_H16PbC11S(I2N)2
_symmetry_space_group_name_H-M   'P 1'
_cell_length_a   12.88053724
_cell_length_b   12.44605697
_cell_length_c   15.16109735
_cell_angle_alpha   87.99152213
_cell_angle_beta   92.11283460
_cell_angle_gamma   88.05169948
_symmetry_Int_Tables_number   1
_chemical_formula_structural   H16PbC11S(I2N)2
_chemical_formula_sum   'H64 Pb4 C44 S4 I16 N8'
_cell_volume   2425.84393881
_cell_formula_units_Z   4
loop_
 _symmetry_equiv_pos_site_id
 _symmetry_equiv_pos_as_xyz
  1  'x, y, z'
loop_
 _atom_site_type_symbol
 _atom_site_label
 _atom_site_symmetry_multiplicity
 _atom_site_fract_x
 _atom_site_fract_y
 _atom_site_fract_z
 _atom_site_occupancy
  H  H0  1  0.41840107  0.17547176  0.73141735  1
  H  H1  1  0.41724368  0.31951093  0.73154952  1
  H  H2  1  0.41289507  0.24485570  0.83269973  1
  H  H3  1  0.23808603  0.32905947  0.77870305  1
  H  H4  1  0.26560920  0.09137897  0.80224189  1
  H  H5  1  0.22803886  0.18227568  0.87482055  1
  H  H6  1  0.14562884  0.15344151  0.79287428  1
  H  H7  1  0.20857263  0.41920833  0.62748267  1
  H  H8  1  0.17431307  0.46929647  0.44598437  1
  H  H9  1  0.16101863  0.39454576  0.29680597  1
  H  H10  1  0.15469724  0.10025455  0.25456769  1
  H  H11  1  0.10324242  0.22708939  0.21636807  1
  H  H12  1  0.32853188  0.16072898  0.21802861  1
  H  H13  1  0.24440865  0.16074307  0.13298278  1
  H  H14  1  0.27488613  0.27828301  0.17649325  1
  H  H15  1  0.20533018  0.07048654  0.40751343  1
  H  H16  1  0.14068678  0.58201884  0.73369887  1
  H  H17  1  0.27741460  0.54670872  0.73125269  1
  H  H18  1  0.22037883  0.57152853  0.83325552  1
  H  H19  1  0.32649130  0.72223429  0.77815016  1
  H  H20  1  0.10488565  0.79939565  0.77443484  1
  H  H21  1  0.16824439  0.75629174  0.86618651  1
  H  H22  1  0.21512210  0.85989744  0.80752685  1
  H  H23  1  0.41091800  0.76276883  0.63486719  1
  H  H24  1  0.45759289  0.80692477  0.45642583  1
  H  H25  1  0.38310609  0.83541044  0.30439901  1
  H  H26  1  0.10136619  0.87535470  0.24498989  1
  H  H27  1  0.22884481  0.89881006  0.21086615  1
  H  H28  1  0.13645428  0.68151785  0.22227965  1
  H  H29  1  0.14575512  0.75903374  0.13185153  1
  H  H30  1  0.25306969  0.70811749  0.18531844  1
  H  H31  1  0.07137719  0.81209724  0.39749930  1
  H  H32  1  0.82086357  0.10306442  0.27446348  1
  H  H33  1  0.68392001  0.08945830  0.28054439  1
  H  H34  1  0.74081369  0.10730460  0.17583788  1
  H  H35  1  0.64770561  0.27448480  0.22801956  1
  H  H36  1  0.87191765  0.32137492  0.22090047  1
  H  H37  1  0.80008718  0.28714926  0.13307110  1
  H  H38  1  0.76520474  0.39380123  0.18898817  1
  H  H39  1  0.57297723  0.30014683  0.37423614  1
  H  H40  1  0.53532223  0.32951186  0.55412038  1
  H  H41  1  0.61734272  0.35477771  0.70242622  1
  H  H42  1  0.90354904  0.37377706  0.74651007  1
  H  H43  1  0.78041748  0.41810472  0.78177865  1
  H  H44  1  0.85502653  0.18779507  0.78416587  1
  H  H45  1  0.85658508  0.27073515  0.86974313  1
  H  H46  1  0.74379549  0.23580416  0.82534225  1
  H  H47  1  0.92367918  0.31497129  0.59825903  1
  H  H48  1  0.88627764  0.87144976  0.26863729  1
  H  H49  1  0.92534098  0.73247952  0.28602990  1
  H  H50  1  0.90000879  0.78627757  0.17715843  1
  H  H51  1  0.75481179  0.67445824  0.23043441  1
  H  H52  1  0.65723987  0.89275318  0.22107487  1
  H  H53  1  0.73251609  0.85683989  0.13855478  1
  H  H54  1  0.63325761  0.78388677  0.16404116  1
  H  H55  1  0.71099788  0.58854715  0.37331345  1
  H  H56  1  0.67526464  0.53712006  0.55183456  1
  H  H57  1  0.65002448  0.61061178  0.69964778  1
  H  H58  1  0.61619710  0.90021461  0.74532442  1
  H  H59  1  0.59326211  0.76663739  0.78295840  1
  H  H60  1  0.79830799  0.86973478  0.78142597  1
  H  H61  1  0.72830457  0.83599222  0.86826310  1
  H  H62  1  0.78511524  0.73981151  0.80712227  1
  H  H63  1  0.68297393  0.93471902  0.59559052  1
  Pb  Pb64  1  0.97338183  0.02241744  0.95882922  1
  Pb  Pb65  1  0.97440173  0.51720270  0.99032495  1
  Pb  Pb66  1  0.47282987  0.99374621  0.00238740  1
  Pb  Pb67  1  0.49174740  0.50304955  0.01303924  1
  C  C68  1  0.38687204  0.24696974  0.76279135  1
  C  C69  1  0.26842603  0.25331700  0.75259851  1
  C  C70  1  0.23269549  0.24886131  0.65753175  1
  C  C71  1  0.21154742  0.33776944  0.60334381  1
  C  C72  1  0.19954033  0.31282486  0.51228870  1
  C  C73  1  0.18262336  0.38274063  0.43775930  1
  C  C74  1  0.17646769  0.34064490  0.35446886  1
  C  C75  1  0.18517579  0.22857071  0.34288511  1
  C  C76  1  0.16991822  0.18630521  0.25203387  1
  C  C77  1  0.20053733  0.15731583  0.41591310  1
  C  C78  1  0.20948309  0.20007203  0.49997495  1
  C  C79  1  0.21801497  0.59584733  0.76274135  1
  C  C80  1  0.24749634  0.71250280  0.75007432  1
  C  C81  1  0.24634076  0.75011587  0.65487368  1
  C  C82  1  0.33204055  0.76741280  0.60625320  1
  C  C83  1  0.30709429  0.78923182  0.51449926  1
  C  C84  1  0.37366594  0.80614876  0.44404979  1
  C  C85  1  0.33170848  0.82125019  0.35886837  1
  C  C86  1  0.22316466  0.82305590  0.34120603  1
  C  C87  1  0.18155976  0.84238314  0.24801397  1
  C  C88  1  0.15538411  0.80901444  0.41025564  1
  C  C89  1  0.19779078  0.79038380  0.49600258  1
  C  C90  1  0.74501011  0.13003336  0.24520750  1
  C  C91  1  0.72631733  0.25018477  0.25364238  1
  C  C92  1  0.73554808  0.28113138  0.34801220  1
  C  C93  1  0.65285376  0.29693494  0.40040983  1
  C  C94  1  0.68269371  0.30886286  0.49107347  1
  C  C95  1  0.61968760  0.32502188  0.56373990  1
  C  C96  1  0.66581576  0.33763090  0.64657021  1
  C  C97  1  0.77511280  0.33448020  0.65912902  1
  C  C98  1  0.82174855  0.35300141  0.74902056  1
  C  C99  1  0.83928729  0.31728016  0.58837122  1
  C  C100  1  0.79273406  0.30386518  0.50492368  1
  C  C101  1  0.87558253  0.78977087  0.24577076  1
  C  C102  1  0.76379520  0.75649658  0.25384905  1
  C  C103  1  0.72918367  0.75815059  0.34694222  1
  C  C104  1  0.71165296  0.66923352  0.39893889  1
  C  C105  1  0.69469677  0.69379187  0.48883843  1
  C  C106  1  0.67767147  0.62347838  0.56106975  1
  C  C107  1  0.66424348  0.66482012  0.64363148  1
  C  C108  1  0.66539617  0.77665410  0.65664444  1
  C  C109  1  0.64749040  0.81712621  0.74734715  1
  C  C110  1  0.68198265  0.84824372  0.58590418  1
  C  C111  1  0.69786696  0.80618134  0.50281164  1
  S  S112  1  0.23609627  0.12980845  0.59978212  1
  S  S113  1  0.13050098  0.76214123  0.59072239  1
  S  S114  1  0.85474168  0.28099497  0.40707358  1
  S  S115  1  0.72471250  0.87690939  0.40580361  1
  I  I116  1  0.23411236  0.00375120  0.02438135  1
  I  I117  1  0.25445724  0.52391027  0.05561903  1
  I  I118  1  0.72918078  0.04117345  0.95241857  1
  I  I119  1  0.75430193  0.42688962  0.98403173  1
  I  I120  1  0.05087465  0.27892564  0.95319529  1
  I  I121  1  0.02100755  0.77536748  -0.00027809  1
  I  I122  1  0.47628551  0.24782557  0.02153734  1
  I  I123  1  0.57517792  0.75175939  0.99707593  1
  I  I124  1  0.96699941  0.02249836  0.73722420  1
  I  I125  1  0.97021299  0.04557579  0.15502353  1
  I  I126  1  0.93115315  0.61185161  0.78700931  1
  I  I127  1  0.98456982  0.51415022  0.20501632  1
  I  I128  1  0.39560811  0.94909658  0.79832205  1
  I  I129  1  0.48018296  0.00754947  0.21698291  1
  I  I130  1  0.49566333  0.52352020  0.80492895  1
  I  I131  1  0.57685538  0.51360738  0.21475286  1
  N  N132  1  0.22331759  0.16475630  0.80862955  1
  N  N133  1  0.26036725  0.19906745  0.19214657  1
  N  N134  1  0.17870889  0.78652586  0.80268240  1
  N  N135  1  0.18023560  0.74175098  0.19482285  1
  N  N136  1  0.79644875  0.31544865  0.19629385  1
  N  N137  1  0.81826547  0.25527129  0.81019309  1
  N  N138  1  0.69305478  0.82752742  0.19172294  1
  N  N139  1  0.74580441  0.81538530  0.80467577  1
