# generated using pymatgen
data_H18PbC10(I2N)2
_symmetry_space_group_name_H-M   'P 1'
_cell_length_a   12.12550105
_cell_length_b   12.40699562
_cell_length_c   14.66236162
_cell_angle_alpha   91.27849924
_cell_angle_beta   90.71499566
_cell_angle_gamma   88.81798777
_symmetry_Int_Tables_number   1
_chemical_formula_structural   H18PbC10(I2N)2
_chemical_formula_sum   'H72 Pb4 C40 I16 N8'
_cell_volume   2204.64312640
_cell_formula_units_Z   4
loop_
 _symmetry_equiv_pos_site_id
 _symmetry_equiv_pos_as_xyz
  1  'x, y, z'
loop_
 _atom_site_type_symbol
 _atom_site_label
 _atom_site_symmetry_multiplicity
 _atom_site_fract_x
 _atom_site_fract_y
 _atom_site_fract_z
 _atom_site_occupancy
  H  H0  1  0.32749518  0.30390916  0.81633278  1
  H  H1  1  0.23882791  0.27138853  0.89604670  1
  H  H2  1  0.20177913  0.36531848  0.82029628  1
  H  H3  1  0.23399676  0.12989724  0.78427771  1
  H  H4  1  0.10793081  0.20393633  0.78735205  1
  H  H5  1  0.16631276  0.31190568  0.65289427  1
  H  H6  1  0.15511974  0.17269134  0.62881789  1
  H  H7  1  0.37334090  0.29100218  0.66455302  1
  H  H8  1  0.36178608  0.14917358  0.64979529  1
  H  H9  1  0.31534930  0.06889545  0.50012611  1
  H  H10  1  0.30893932  0.08817319  0.33245222  1
  H  H11  1  0.34045091  0.35105924  0.21450718  1
  H  H12  1  0.36337277  0.20929702  0.20177749  1
  H  H13  1  0.14406291  0.32006558  0.22323151  1
  H  H14  1  0.16325921  0.18478750  0.21447474  1
  H  H15  1  0.19607900  0.26569571  0.12858124  1
  H  H16  1  0.33213226  0.43293524  0.36659630  1
  H  H17  1  0.33906468  0.41357369  0.53427506  1
  H  H18  1  0.31067128  0.67206523  0.80380063  1
  H  H19  1  0.27320777  0.75452437  0.89015569  1
  H  H20  1  0.37229312  0.79152753  0.81785259  1
  H  H21  1  0.13181287  0.77312542  0.78125996  1
  H  H22  1  0.20966164  0.89215785  0.78856598  1
  H  H23  1  0.31747364  0.83090638  0.64975257  1
  H  H24  1  0.17469925  0.84923809  0.62842060  1
  H  H25  1  0.29286317  0.62955447  0.65611466  1
  H  H26  1  0.14861396  0.64863319  0.64265605  1
  H  H27  1  0.06713487  0.69961987  0.49610315  1
  H  H28  1  0.08719098  0.70682405  0.32854277  1
  H  H29  1  0.35323032  0.65823135  0.20626456  1
  H  H30  1  0.20718547  0.64920639  0.19581376  1
  H  H31  1  0.33532967  0.85089263  0.21531744  1
  H  H32  1  0.19719964  0.84967755  0.22099895  1
  H  H33  1  0.26033601  0.80570254  0.12645292  1
  H  H34  1  0.43922575  0.66401932  0.35805108  1
  H  H35  1  0.41940434  0.65864868  0.52652279  1
  H  H36  1  0.67412659  0.17473998  0.19046210  1
  H  H37  1  0.72460603  0.24480534  0.10452225  1
  H  H38  1  0.63687486  0.30485067  0.17678786  1
  H  H39  1  0.87091887  0.24421296  0.21192378  1
  H  H40  1  0.80832236  0.37442646  0.20927957  1
  H  H41  1  0.69239745  0.32709203  0.34623806  1
  H  H42  1  0.83535848  0.33569518  0.36706352  1
  H  H43  1  0.71089105  0.12338890  0.33565345  1
  H  H44  1  0.85556888  0.13324018  0.35084313  1
  H  H45  1  0.93551462  0.17861611  0.50127772  1
  H  H46  1  0.91217818  0.17944653  0.66902025  1
  H  H47  1  0.63672746  0.14942324  0.78144221  1
  H  H48  1  0.78070602  0.12145261  0.79660983  1
  H  H49  1  0.68500110  0.34293932  0.77398803  1
  H  H50  1  0.81494985  0.30996386  0.80538216  1
  H  H51  1  0.70822561  0.28523671  0.87329620  1
  H  H52  1  0.55982993  0.16399585  0.63147139  1
  H  H53  1  0.58282538  0.16304482  0.46377459  1
  H  H54  1  0.83095009  0.67055234  0.19961386  1
  H  H55  1  0.75808565  0.71986442  0.11119128  1
  H  H56  1  0.70621787  0.62131414  0.17527629  1
  H  H57  1  0.72924163  0.85419064  0.21788523  1
  H  H58  1  0.60836092  0.77743537  0.21227032  1
  H  H59  1  0.67576308  0.67458863  0.35180620  1
  H  H60  1  0.64926551  0.81340326  0.37150615  1
  H  H61  1  0.87981627  0.70927936  0.34331993  1
  H  H62  1  0.85298039  0.84961689  0.35631997  1
  H  H63  1  0.81140491  0.92986011  0.50577245  1
  H  H64  1  0.80901795  0.91080274  0.67314632  1
  H  H65  1  0.86412636  0.65177724  0.79169129  1
  H  H66  1  0.86335709  0.79512861  0.80411773  1
  H  H67  1  0.66478423  0.65741621  0.78559343  1
  H  H68  1  0.65973535  0.79299940  0.78664839  1
  H  H69  1  0.71018737  0.72724294  0.87684211  1
  H  H70  1  0.84301106  0.56592943  0.64019681  1
  H  H71  1  0.84358346  0.58477322  0.47180401  1
  Pb  Pb72  1  1.00452089  0.00007928  0.01114764  1
  Pb  Pb73  1  0.01904078  0.51247596  0.00340655  1
  Pb  Pb74  1  0.51690206  0.99122806  0.99247193  1
  Pb  Pb75  1  0.50827406  0.50270892  0.98796852  1
  C  C76  1  0.19458079  0.20735365  0.76713776  1
  C  C77  1  0.20467184  0.23256514  0.66670437  1
  C  C78  1  0.32379203  0.22735583  0.63131959  1
  C  C79  1  0.32631467  0.23994126  0.52924607  1
  C  C80  1  0.31813971  0.14908307  0.47106244  1
  C  C81  1  0.31416463  0.15970838  0.37673200  1
  C  C82  1  0.31776486  0.26188316  0.33799791  1
  C  C83  1  0.31271306  0.27214388  0.23613502  1
  C  C84  1  0.32721047  0.35292154  0.39564746  1
  C  C85  1  0.33149969  0.34188861  0.49025236  1
  C  C86  1  0.21146590  0.80774212  0.76475511  1
  C  C87  1  0.23593383  0.79768891  0.66364373  1
  C  C88  1  0.22885175  0.68178592  0.62483017  1
  C  C89  1  0.24203495  0.67975009  0.52294678  1
  C  C90  1  0.14914144  0.69347327  0.46613729  1
  C  C91  1  0.16029702  0.69810514  0.37204140  1
  C  C92  1  0.26467643  0.68846673  0.33221924  1
  C  C93  1  0.27445418  0.69256312  0.23047457  1
  C  C94  1  0.35777340  0.67390356  0.38852547  1
  C  C95  1  0.34640728  0.66987869  0.48304485  1
  C  C96  1  0.79650931  0.29124304  0.23035772  1
  C  C97  1  0.77242676  0.28695576  0.33163858  1
  C  C98  1  0.77587645  0.17191157  0.36878828  1
  C  C99  1  0.76089079  0.17148444  0.47062260  1
  C  C100  1  0.85273504  0.17708747  0.52972224  1
  C  C101  1  0.83971905  0.17851708  0.62403758  1
  C  C102  1  0.73406561  0.17463128  0.66156167  1
  C  C103  1  0.71958068  0.17454146  0.76297815  1
  C  C104  1  0.64213821  0.16921283  0.60288125  1
  C  C105  1  0.65542240  0.16785691  0.50850275  1
  C  C106  1  0.69480375  0.77634465  0.23532708  1
  C  C107  1  0.70547962  0.75554613  0.33667076  1
  C  C108  1  0.82327374  0.76976198  0.37480397  1
  C  C109  1  0.82661954  0.75845307  0.47689501  1
  C  C110  1  0.81676490  0.84954746  0.53472044  1
  C  C111  1  0.81489453  0.83899656  0.62907947  1
  C  C112  1  0.82350768  0.73694480  0.66796981  1
  C  C113  1  0.82290555  0.72659937  0.76978729  1
  C  C114  1  0.83378315  0.64559139  0.61053927  1
  C  C115  1  0.83494313  0.65638683  0.51602946  1
  I  I116  1  0.26186922  0.04715767  0.98575102  1
  I  I117  1  0.26449476  0.44339968  0.03257825  1
  I  I118  1  0.76661258  0.88851639  0.00604862  1
  I  I119  1  0.76152104  0.51931371  0.95964891  1
  I  I120  1  0.96666852  0.25520766  0.00334353  1
  I  I121  1  0.09780595  0.75422480  0.00334890  1
  I  I122  1  0.54015147  0.24535702  0.96914854  1
  I  I123  1  0.46325898  0.74797540  0.02741759  1
  I  I124  1  0.98178357  0.99943992  0.80094169  1
  I  I125  1  0.05564753  0.01076324  0.23982612  1
  I  I126  1  0.05071274  0.49362502  0.78514818  1
  I  I127  1  0.99662338  0.51427560  0.22300512  1
  I  I128  1  0.50967073  0.93678691  0.77163526  1
  I  I129  1  0.51981968  0.02284944  0.21017686  1
  I  I130  1  0.48966402  0.50469442  0.76481044  1
  I  I131  1  0.55232450  0.49071616  0.20700300  1
  N  N132  1  0.24520435  0.29170089  0.82833597  1
  N  N133  1  0.19663658  0.25944366  0.19891791  1
  N  N134  1  0.29734249  0.75195296  0.82241925  1
  N  N135  1  0.26676635  0.80692625  0.19715498  1
  N  N136  1  0.70310323  0.24961011  0.17240117  1
  N  N137  1  0.73426156  0.28555921  0.80572356  1
  N  N138  1  0.75208812  0.69172234  0.17721221  1
  N  N139  1  0.70707945  0.72564573  0.80616943  1
