# generated using pymatgen
data_H9PbC5I4N3
_symmetry_space_group_name_H-M   'P 1'
_cell_length_a   12.22306571
_cell_length_b   12.13675291
_cell_length_c   10.73861680
_cell_angle_alpha   90.02509440
_cell_angle_beta   89.99735752
_cell_angle_gamma   89.06837728
_symmetry_Int_Tables_number   1
_chemical_formula_structural   H9PbC5I4N3
_chemical_formula_sum   'H36 Pb4 C20 I16 N12'
_cell_volume   1592.84511108
_cell_formula_units_Z   4
loop_
 _symmetry_equiv_pos_site_id
 _symmetry_equiv_pos_as_xyz
  1  'x, y, z'
loop_
 _atom_site_type_symbol
 _atom_site_label
 _atom_site_symmetry_multiplicity
 _atom_site_fract_x
 _atom_site_fract_y
 _atom_site_fract_z
 _atom_site_occupancy
  H  H0  1  0.29168265  0.25003819  0.83133062  1
  H  H1  1  0.35985566  0.17496608  0.72386862  1
  H  H2  1  0.36517082  0.31610730  0.72284361  1
  H  H3  1  0.17193970  0.33397139  0.68100386  1
  H  H4  1  0.16058696  0.18696445  0.68456243  1
  H  H5  1  0.24608618  0.07112993  0.50750938  1
  H  H6  1  0.28437271  0.08064595  0.27295431  1
  H  H7  1  0.29019846  0.25454263  0.18020149  1
  H  H8  1  0.24301514  0.42839592  0.49482442  1
  H  H9  1  0.25350609  0.70842610  0.83100905  1
  H  H10  1  0.17144463  0.64561719  0.72659272  1
  H  H11  1  0.30924713  0.62708360  0.72071959  1
  H  H12  1  0.33594291  0.82353394  0.68110403  1
  H  H13  1  0.19123809  0.84400032  0.68324997  1
  H  H14  1  0.07431026  0.75685913  0.50627480  1
  H  H15  1  0.08512406  0.72102440  0.27133097  1
  H  H16  1  0.25838552  0.71183362  0.17890850  1
  H  H17  1  0.42908082  0.75440997  0.49418235  1
  H  H18  1  0.75138259  0.21264684  0.16865698  1
  H  H19  1  0.82591556  0.14361182  0.27554596  1
  H  H20  1  0.68730716  0.13569625  0.27567627  1
  H  H21  1  0.66604651  0.33080727  0.32012866  1
  H  H22  1  0.81091731  0.34501572  0.31665120  1
  H  H23  1  0.92778348  0.26112130  0.49476173  1
  H  H24  1  0.91789504  0.22567588  0.72962758  1
  H  H25  1  0.74467558  0.21536083  0.82133823  1
  H  H26  1  0.57313616  0.25746148  0.50524279  1
  H  H27  1  0.78351460  0.74706136  0.16830660  1
  H  H28  1  0.84755835  0.82698650  0.27387102  1
  H  H29  1  0.86119945  0.68630807  0.27723352  1
  H  H30  1  0.66856891  0.66457665  0.32002169  1
  H  H31  1  0.65039551  0.81129131  0.31736248  1
  H  H32  1  0.73755365  0.92832064  0.49197285  1
  H  H33  1  0.77765466  0.91919489  0.72644126  1
  H  H34  1  0.78721509  0.74482295  0.81997209  1
  H  H35  1  0.74085943  0.57113477  0.50672480  1
  Pb  Pb36  1  0.00724269  1.00086207  0.99921897  1
  Pb  Pb37  1  0.99609484  0.49729992  0.99747365  1
  Pb  Pb38  1  0.50015304  0.99509036  0.99770465  1
  Pb  Pb39  1  0.50287186  0.50041972  0.00478886  1
  C  C40  1  0.21401394  0.25549244  0.65874080  1
  C  C41  1  0.24105480  0.24983130  0.52231958  1
  C  C42  1  0.25360602  0.14992289  0.46003507  1
  C  C43  1  0.27454487  0.15264984  0.33249700  1
  C  C44  1  0.25110725  0.34733245  0.45175271  1
  C  C45  1  0.25744442  0.78541336  0.65819032  1
  C  C46  1  0.25183417  0.75864270  0.52180620  1
  C  C47  1  0.15288602  0.74852116  0.45911827  1
  C  C48  1  0.15625800  0.72923744  0.33119631  1
  C  C49  1  0.34877738  0.74758325  0.45098321  1
  C  C50  1  0.74442125  0.28914630  0.34212932  1
  C  C51  1  0.75042273  0.26196285  0.47838350  1
  C  C52  1  0.84943048  0.25231611  0.54163861  1
  C  C53  1  0.84650862  0.23318169  0.66957980  1
  C  C54  1  0.65356430  0.25055235  0.54870309  1
  C  C55  1  0.70726225  0.74348518  0.34221520  1
  C  C56  1  0.73575520  0.74959440  0.47811218  1
  C  C57  1  0.74714986  0.84961010  0.53973872  1
  C  C58  1  0.76859369  0.84713931  0.66723359  1
  C  C59  1  0.74800456  0.65230624  0.54921393  1
  I  I60  1  0.25250865  0.08299136  0.00330793  1
  I  I61  1  0.24971574  0.42604557  0.00406836  1
  I  I62  1  0.75540481  0.93500768  0.99485813  1
  I  I63  1  0.74806944  0.59121935  0.99640566  1
  I  I64  1  0.91821337  0.24989949  0.00122888  1
  I  I65  1  0.06950261  0.74800796  0.00248113  1
  I  I66  1  0.57548320  0.24654341  0.99718443  1
  I  I67  1  0.41017104  0.74974310  0.99810737  1
  I  I68  1  0.01761990  0.99603879  0.70166563  1
  I  I69  1  0.97606931  0.99458610  0.30919902  1
  I  I70  1  0.01889448  0.50998907  0.69788335  1
  I  I71  1  0.97025134  0.51091705  0.30540013  1
  I  I72  1  0.48351926  0.00129957  0.70098399  1
  I  I73  1  0.53085872  0.01499245  0.30879508  1
  I  I74  1  0.45810807  0.49359035  0.68159870  1
  I  I75  1  0.51260185  0.49370636  0.29221195  1
  N  N76  1  0.31446673  0.24798837  0.73804049  1
  N  N77  1  0.27958017  0.25066259  0.27596329  1
  N  N78  1  0.26938703  0.34852657  0.32986469  1
  N  N79  1  0.24621944  0.68559358  0.73800054  1
  N  N80  1  0.25361336  0.72208128  0.27474429  1
  N  N81  1  0.35066044  0.73022451  0.32899897  1
  N  N82  1  0.75344785  0.18899551  0.26169471  1
  N  N83  1  0.74908275  0.22540611  0.72546082  1
  N  N84  1  0.65203921  0.23287059  0.67061736  1
  N  N85  1  0.80648946  0.75280919  0.26151790  1
  N  N86  1  0.77621940  0.74933491  0.72416031  1
  N  N87  1  0.76734323  0.65138100  0.67077709  1
