# generated using pymatgen
data_H13PbC10SI4N2F
_symmetry_space_group_name_H-M   'P 1'
_cell_length_a   12.53580001
_cell_length_b   12.46927214
_cell_length_c   14.51023414
_cell_angle_alpha   90.39798210
_cell_angle_beta   90.11851101
_cell_angle_gamma   90.00268936
_symmetry_Int_Tables_number   1
_chemical_formula_structural   H13PbC10SI4N2F
_chemical_formula_sum   'H52 Pb4 C40 S4 I16 N8 F4'
_cell_volume   2268.06852675
_cell_formula_units_Z   4
loop_
 _symmetry_equiv_pos_site_id
 _symmetry_equiv_pos_as_xyz
  1  'x, y, z'
loop_
 _atom_site_type_symbol
 _atom_site_label
 _atom_site_symmetry_multiplicity
 _atom_site_fract_x
 _atom_site_fract_y
 _atom_site_fract_z
 _atom_site_occupancy
  H  H0  1  0.19774004  0.09596546  0.78538831  1
  H  H1  1  0.27126672  0.13441711  0.87688497  1
  H  H2  1  0.18265551  0.21722628  0.83156718  1
  H  H3  1  0.35250527  0.27995577  0.78511567  1
  H  H4  1  0.39287072  0.14597489  0.76108384  1
  H  H5  1  0.29823543  0.39101270  0.65120764  1
  H  H6  1  0.25849617  0.47169735  0.47410085  1
  H  H7  1  0.22407203  0.42342716  0.31005483  1
  H  H8  1  0.11565174  0.19257623  0.23023522  1
  H  H9  1  0.19455689  0.30269528  0.19318100  1
  H  H10  1  0.33962723  0.18682339  0.16691936  1
  H  H11  1  0.23333254  0.12172488  0.12764331  1
  H  H12  1  0.28706027  0.08679476  0.22811198  1
  H  H13  1  0.09627194  0.79868951  0.78506416  1
  H  H14  1  0.12461071  0.71847940  0.87440759  1
  H  H15  1  0.21263046  0.80820447  0.83930549  1
  H  H16  1  0.27916059  0.64338818  0.78392718  1
  H  H17  1  0.14721727  0.60054164  0.75775799  1
  H  H18  1  0.38985422  0.70045378  0.65100976  1
  H  H19  1  0.47121303  0.74127251  0.47454815  1
  H  H20  1  0.42437606  0.77377072  0.31039729  1
  H  H21  1  0.19761786  0.88328226  0.23149924  1
  H  H22  1  0.30508586  0.80125125  0.19328028  1
  H  H23  1  0.18811933  0.66294752  0.15734109  1
  H  H24  1  0.11730120  0.77099310  0.13215449  1
  H  H25  1  0.09196945  0.70507064  0.22900882  1
  H  H26  1  0.89963107  0.32122062  0.22130434  1
  H  H27  1  0.88619588  0.24053872  0.12922741  1
  H  H28  1  0.78685455  0.31906083  0.16109981  1
  H  H29  1  0.72962536  0.15218012  0.21280526  1
  H  H30  1  0.86342858  0.11411349  0.23728111  1
  H  H31  1  0.61469672  0.20991953  0.34541419  1
  H  H32  1  0.53037651  0.24949755  0.52148886  1
  H  H33  1  0.57491711  0.28649321  0.68591743  1
  H  H34  1  0.79438331  0.39374336  0.76932217  1
  H  H35  1  0.69074863  0.30684171  0.80551707  1
  H  H36  1  0.82552657  0.16588969  0.82032265  1
  H  H37  1  0.85770237  0.27646446  0.87985708  1
  H  H38  1  0.91917579  0.24933011  0.78051941  1
  H  H39  1  0.67600249  0.90046076  0.21909580  1
  H  H40  1  0.75467831  0.88100955  0.12768632  1
  H  H41  1  0.67660819  0.78340725  0.16324617  1
  H  H42  1  0.84715031  0.73133930  0.21405510  1
  H  H43  1  0.88021966  0.86668531  0.23951225  1
  H  H44  1  0.79012088  0.61383474  0.34576536  1
  H  H45  1  0.75067485  0.52888627  0.52181312  1
  H  H46  1  0.71253094  0.57395282  0.68579144  1
  H  H47  1  0.60392488  0.79449323  0.76873503  1
  H  H48  1  0.69054308  0.69094686  0.80579376  1
  H  H49  1  0.83030452  0.82597153  0.82310321  1
  H  H50  1  0.71958905  0.86067727  0.87991371  1
  H  H51  1  0.74832595  0.92010892  0.78071568  1
  Pb  Pb52  1  0.01282434  -0.00117885  0.98242279  1
  Pb  Pb53  1  0.99392893  0.50351681  0.00795515  1
  Pb  Pb54  1  0.50941094  0.01521123  0.00597251  1
  Pb  Pb55  1  0.50455758  0.50585043  0.00805438  1
  C  C56  1  0.32669917  0.20344512  0.75450597  1
  C  C57  1  0.29526797  0.21839621  0.65693621  1
  C  C58  1  0.28630606  0.31544578  0.61448794  1
  C  C59  1  0.26526200  0.30633605  0.51802692  1
  C  C60  1  0.25274427  0.38801265  0.45268893  1
  C  C61  1  0.23401800  0.36105055  0.36150485  1
  C  C62  1  0.22538546  0.25319546  0.33237653  1
  C  C63  1  0.19507700  0.22952143  0.23445749  1
  C  C64  1  0.23736962  0.17283738  0.39775044  1
  C  C65  1  0.25840825  0.19678944  0.48989289  1
  C  C66  1  0.20292612  0.66849772  0.75358894  1
  C  C67  1  0.21817636  0.70286659  0.65684031  1
  C  C68  1  0.31487672  0.71260931  0.61447246  1
  C  C69  1  0.30642035  0.73411280  0.51821037  1
  C  C70  1  0.38810415  0.74657298  0.45300862  1
  C  C71  1  0.36193151  0.76425392  0.36174577  1
  C  C72  1  0.25483252  0.77230518  0.33245779  1
  C  C73  1  0.23211175  0.80240549  0.23464181  1
  C  C74  1  0.17446182  0.76169835  0.39789391  1
  C  C75  1  0.19762772  0.74089192  0.49001152  1
  C  C76  1  0.80465921  0.17898706  0.24445937  1
  C  C77  1  0.78671425  0.20762490  0.34261949  1
  C  C78  1  0.68920744  0.21818700  0.38345535  1
  C  C79  1  0.69591170  0.23786160  0.48029088  1
  C  C80  1  0.61314509  0.25273234  0.54428977  1
  C  C81  1  0.63797614  0.27196047  0.63579063  1
  C  C82  1  0.74467716  0.27790569  0.66691445  1
  C  C83  1  0.76409727  0.31103912  0.76490581  1
  C  C84  1  0.82607232  0.26285386  0.60298892  1
  C  C85  1  0.80408001  0.24208019  0.51040537  1
  C  C86  1  0.81741566  0.80572488  0.24565082  1
  C  C87  1  0.78929964  0.78682469  0.34353230  1
  C  C88  1  0.78061286  0.68863773  0.38400248  1
  C  C89  1  0.76114737  0.69521414  0.48080451  1
  C  C90  1  0.74682363  0.61219154  0.54466519  1
  C  C91  1  0.72686197  0.63733622  0.63599346  1
  C  C92  1  0.72005770  0.74462780  0.66745441  1
  C  C93  1  0.68632651  0.76451060  0.76519171  1
  C  C94  1  0.73510996  0.82621279  0.60371196  1
  C  C95  1  0.75591692  0.80392953  0.51124838  1
  S  S96  1  0.27972023  0.10975296  0.58067821  1
  S  S97  1  0.11052314  0.71900073  0.58062241  1
  S  S98  1  0.89279575  0.22032702  0.42080126  1
  S  S99  1  0.77579336  0.89324899  0.42205997  1
  I  I100  1  0.26089031  0.93287696  0.98786350  1
  I  I101  1  0.23981540  0.56739076  0.00582104  1
  I  I102  1  0.76486839  0.06052726  0.00197996  1
  I  I103  1  0.74699869  0.41688314  0.00400359  1
  I  I104  1  0.06269579  0.24950189  0.99642685  1
  I  I105  1  0.93190409  0.75394615  0.99548569  1
  I  I106  1  0.41715322  0.25124645  0.00168994  1
  I  I107  1  0.56777139  0.75738218  0.00576147  1
  I  I108  1  0.00548759  0.99284895  0.75615043  1
  I  I109  1  0.02803446  0.99889298  0.19679790  1
  I  I110  1  0.98456163  0.49091388  0.79237479  1
  I  I111  1  0.98970709  0.50463840  0.23617313  1
  I  I112  1  0.52512694  1.00146387  0.79143304  1
  I  I113  1  0.51190447  0.01545906  0.23498695  1
  I  I114  1  0.48413579  0.50085023  0.78233233  1
  I  I115  1  0.49746448  0.49823038  0.22081985  1
  N  N116  1  0.23895638  0.15989934  0.81483798  1
  N  N117  1  0.26850445  0.15145345  0.18709485  1
  N  N118  1  0.15614590  0.75372718  0.81597496  1
  N  N119  1  0.15268265  0.73094120  0.18643241  1
  N  N120  1  0.84673897  0.26980950  0.18680385  1
  N  N121  1  0.84681620  0.24533347  0.81394346  1
  N  N122  1  0.72626047  0.84446620  0.18670736  1
  N  N123  1  0.75153465  0.84789549  0.81486544  1
  F  F124  1  0.22925615  0.06706316  0.37087950  1
  F  F125  1  0.06956659  0.77094070  0.37099128  1
  F  F126  1  0.93081600  0.26842626  0.63094541  1
  F  F127  1  0.72933234  0.93163375  0.63148196  1
