# generated using pymatgen
data_H13PbC10SI4N2F
_symmetry_space_group_name_H-M   'P 1'
_cell_length_a   12.34763972
_cell_length_b   12.26308385
_cell_length_c   14.97657152
_cell_angle_alpha   89.99699381
_cell_angle_beta   88.26547286
_cell_angle_gamma   89.99736380
_symmetry_Int_Tables_number   1
_chemical_formula_structural   H13PbC10SI4N2F
_chemical_formula_sum   'H52 Pb4 C40 S4 I16 N8 F4'
_cell_volume   2266.71548769
_cell_formula_units_Z   4
loop_
 _symmetry_equiv_pos_site_id
 _symmetry_equiv_pos_as_xyz
  1  'x, y, z'
loop_
 _atom_site_type_symbol
 _atom_site_label
 _atom_site_symmetry_multiplicity
 _atom_site_fract_x
 _atom_site_fract_y
 _atom_site_fract_z
 _atom_site_occupancy
  H  H0  1  0.18846456  0.26596804  0.81598706  1
  H  H1  1  0.16316323  0.13428750  0.79727367  1
  H  H2  1  0.24551619  0.16937931  0.87974083  1
  H  H3  1  0.38395362  0.23225363  0.78030348  1
  H  H4  1  0.34847855  0.09645447  0.75278209  1
  H  H5  1  0.31105663  0.39041464  0.69244490  1
  H  H6  1  0.21511632  0.39713720  0.36775280  1
  H  H7  1  0.15186793  0.29719778  0.22954765  1
  H  H8  1  0.11414438  0.15772038  0.24177075  1
  H  H9  1  0.23888306  0.16162077  0.12816277  1
  H  H10  1  0.31476921  0.11491159  0.21156920  1
  H  H11  1  0.32637275  0.24262053  0.17595215  1
  H  H12  1  0.27593970  0.05483874  0.60609957  1
  H  H13  1  0.25724604  0.79908112  0.82703644  1
  H  H14  1  0.13595115  0.84099730  0.79275601  1
  H  H15  1  0.14576286  0.75194519  0.87706195  1
  H  H16  1  0.22312847  0.61375440  0.78093691  1
  H  H17  1  0.09045464  0.65212679  0.75183822  1
  H  H18  1  0.38606419  0.69248307  0.69452402  1
  H  H19  1  0.40645356  0.77780303  0.36550375  1
  H  H20  1  0.31772220  0.82951008  0.22399388  1
  H  H21  1  0.18499767  0.88392636  0.23762178  1
  H  H22  1  0.16251849  0.76222683  0.12970251  1
  H  H23  1  0.12477438  0.68122334  0.21446280  1
  H  H24  1  0.24709012  0.66898427  0.16623330  1
  H  H25  1  0.05636851  0.72251869  0.60492762  1
  H  H26  1  0.73717693  0.31698542  0.18611674  1
  H  H27  1  0.86578288  0.35017736  0.20658171  1
  H  H28  1  0.83701244  0.26401083  0.12389103  1
  H  H29  1  0.77498953  0.12438361  0.21963470  1
  H  H30  1  0.90766316  0.16355903  0.24721490  1
  H  H31  1  0.61280614  0.19567456  0.31110326  1
  H  H32  1  0.59921230  0.29382517  0.63872701  1
  H  H33  1  0.69332990  0.36207236  0.77461800  1
  H  H34  1  0.83241775  0.40060816  0.76297521  1
  H  H35  1  0.80592172  0.27375089  0.87819180  1
  H  H36  1  0.88250560  0.21325108  0.79705816  1
  H  H37  1  0.74980192  0.17955781  0.81088979  1
  H  H38  1  0.94424872  0.23102505  0.39578832  1
  H  H39  1  0.67245195  0.72406501  0.18891635  1
  H  H40  1  0.64072779  0.85473593  0.21046191  1
  H  H41  1  0.72248465  0.82434975  0.12419436  1
  H  H42  1  0.86677878  0.76769646  0.21378059  1
  H  H43  1  0.82461397  0.90075538  0.24389253  1
  H  H44  1  0.79710513  0.60548364  0.30627617  1
  H  H45  1  0.70824394  0.59911661  0.63723841  1
  H  H46  1  0.64306982  0.69602374  0.77608369  1
  H  H47  1  0.59638206  0.83247776  0.76315519  1
  H  H48  1  0.71797544  0.82046867  0.87812418  1
  H  H49  1  0.77369021  0.89971471  0.79662727  1
  H  H50  1  0.82001106  0.77300267  0.81371665  1
  H  H51  1  0.76552613  0.94105653  0.39530399  1
  Pb  Pb52  1  0.99748160  0.99794817  0.97674551  1
  Pb  Pb53  1  0.01101999  0.48552654  0.99287059  1
  Pb  Pb54  1  0.51096846  0.01101361  0.99447664  1
  Pb  Pb55  1  0.50108775  0.50543554  0.99667962  1
  C  C56  1  0.32061994  0.18128353  0.75168103  1
  C  C57  1  0.29416641  0.21799992  0.65898631  1
  C  C58  1  0.29163030  0.33112312  0.64107597  1
  C  C59  1  0.26703472  0.36681970  0.55684923  1
  C  C60  1  0.24605320  0.29417890  0.48713745  1
  C  C61  1  0.22271127  0.31588671  0.39616215  1
  C  C62  1  0.20941041  0.22238773  0.34770763  1
  C  C63  1  0.17926552  0.21705369  0.25254451  1
  C  C64  1  0.24994990  0.18075810  0.50679671  1
  C  C65  1  0.27329506  0.14209392  0.59215855  1
  C  C66  1  0.17501610  0.67911112  0.75140572  1
  C  C67  1  0.21612509  0.70848646  0.65932390  1
  C  C68  1  0.32929039  0.71304067  0.64257717  1
  C  C69  1  0.36819877  0.73591488  0.55742041  1
  C  C70  1  0.29898614  0.75322211  0.48624506  1
  C  C71  1  0.32468994  0.77144830  0.39409229  1
  C  C72  1  0.23429614  0.78131782  0.34418993  1
  C  C73  1  0.23508921  0.81119728  0.24827530  1
  C  C74  1  0.18546073  0.74896198  0.50520891  1
  C  C75  1  0.14353088  0.72709320  0.59130181  1
  C  C76  1  0.82264456  0.18920345  0.25035877  1
  C  C77  1  0.78339750  0.21340705  0.34381797  1
  C  C78  1  0.67048680  0.21464555  0.36266982  1
  C  C79  1  0.63294200  0.23743835  0.44828963  1
  C  C80  1  0.70354570  0.25887238  0.51791219  1
  C  C81  1  0.68031778  0.28529195  0.60914002  1
  C  C82  1  0.77222572  0.30150700  0.65633242  1
  C  C83  1  0.77425298  0.33464558  0.75183399  1
  C  C84  1  0.81679006  0.25533423  0.49720558  1
  C  C85  1  0.85720315  0.23294345  0.41074587  1
  C  C86  1  0.80135537  0.81464965  0.24693024  1
  C  C87  1  0.78098416  0.77762300  0.34126347  1
  C  C88  1  0.78077078  0.66458680  0.35930920  1
  C  C89  1  0.76183210  0.62880423  0.44554491  1
  C  C90  1  0.74273672  0.70153821  0.51657943  1
  C  C91  1  0.71847953  0.68018097  0.60856361  1
  C  C92  1  0.70203641  0.77387338  0.65680801  1
  C  C93  1  0.66602324  0.77781632  0.75220471  1
  C  C94  1  0.74469631  0.81502723  0.49659325  1
  C  C95  1  0.76408057  0.85374349  0.40955838  1
  S  S96  1  0.22333856  0.10449370  0.41206908  1
  S  S97  1  0.11396429  0.77076736  0.40854355  1
  S  S98  1  0.89073407  0.28525377  0.59082618  1
  S  S99  1  0.71601009  0.89171279  0.59185160  1
  I  I100  1  0.25826702  0.95319222  0.97538198  1
  I  I101  1  0.25439720  0.58427130  0.99195051  1
  I  I102  1  0.75726736  0.06326354  0.02936119  1
  I  I103  1  0.75854680  0.42748760  0.99075002  1
  I  I104  1  0.06805375  0.24115547  0.02693147  1
  I  I105  1  0.94510317  0.74294969  0.97097780  1
  I  I106  1  0.42888265  0.25717072  0.00475671  1
  I  I107  1  0.57693060  0.75990676  0.98808763  1
  I  I108  1  0.00565202  0.00297219  0.75378463  1
  I  I109  1  0.02224257  0.97569875  0.18103246  1
  I  I110  1  0.05274026  0.41455240  0.78940857  1
  I  I111  1  0.00382552  0.50433061  0.21502768  1
  I  I112  1  0.58886633  0.06034458  0.79029278  1
  I  I113  1  0.49015904  0.99707842  0.21545468  1
  I  I114  1  0.50130046  0.49968844  0.78339708  1
  I  I115  1  0.52480288  0.54055184  0.20904093  1
  N  N116  1  0.22395082  0.18835312  0.81532308  1
  N  N117  1  0.27037877  0.18170918  0.18951306  1
  N  N118  1  0.17948461  0.77375763  0.81518596  1
  N  N119  1  0.18974186  0.72578061  0.18714633  1
  N  N120  1  0.81463984  0.28605670  0.18869321  1
  N  N121  1  0.80624877  0.24333217  0.81307245  1
  N  N122  1  0.70386486  0.80281345  0.18970358  1
  N  N123  1  0.75133014  0.82074091  0.81282207  1
  F  F124  1  0.26372892  0.47571733  0.53921631  1
  F  F125  1  0.47697689  0.73906432  0.53996770  1
  F  F126  1  0.52428772  0.23862347  0.46689330  1
  F  F127  1  0.76159256  0.51988232  0.46341455  1
