# generated using pymatgen
data_H13PbC9SI4N3
_symmetry_space_group_name_H-M   'P 1'
_cell_length_a   12.77156385
_cell_length_b   12.68330955
_cell_length_c   13.91137171
_cell_angle_alpha   91.70234728
_cell_angle_beta   90.84260243
_cell_angle_gamma   89.79814088
_symmetry_Int_Tables_number   1
_chemical_formula_structural   H13PbC9SI4N3
_chemical_formula_sum   'H52 Pb4 C36 S4 I16 N12'
_cell_volume   2252.19437831
_cell_formula_units_Z   4
loop_
 _symmetry_equiv_pos_site_id
 _symmetry_equiv_pos_as_xyz
  1  'x, y, z'
loop_
 _atom_site_type_symbol
 _atom_site_label
 _atom_site_symmetry_multiplicity
 _atom_site_fract_x
 _atom_site_fract_y
 _atom_site_fract_z
 _atom_site_occupancy
  H  H0  1  0.24745960  0.38180346  0.88168529  1
  H  H1  1  0.27863695  0.41623744  0.77035092  1
  H  H2  1  0.15613854  0.37789756  0.79384572  1
  H  H3  1  0.22074495  0.20017371  0.82538620  1
  H  H4  1  0.35031842  0.24610795  0.80864269  1
  H  H5  1  0.25573197  0.06452061  0.69416888  1
  H  H6  1  0.23652579  0.02686912  0.51638196  1
  H  H7  1  0.20530194  0.12705958  0.33587045  1
  H  H8  1  0.15249198  0.25728408  0.21052211  1
  H  H9  1  0.13008313  0.39043319  0.24809098  1
  H  H10  1  0.25459389  0.40147174  0.13340219  1
  H  H11  1  0.32365184  0.29748094  0.16702929  1
  H  H12  1  0.33049995  0.40930273  0.23203445  1
  H  H13  1  0.39105109  0.74160177  0.87615689  1
  H  H14  1  0.41764315  0.71003997  0.76104611  1
  H  H15  1  0.38825693  0.83456695  0.79271568  1
  H  H16  1  0.21006913  0.78270274  0.82811428  1
  H  H17  1  0.24630360  0.64844214  0.80732849  1
  H  H18  1  0.06914898  0.73973140  0.69769368  1
  H  H19  1  0.03069063  0.75977433  0.52138141  1
  H  H20  1  0.12878919  0.79337354  0.34011156  1
  H  H21  1  0.25592554  0.84965669  0.21452570  1
  H  H22  1  0.38540593  0.88147490  0.25372305  1
  H  H23  1  0.40937614  0.75763720  0.13444975  1
  H  H24  1  0.31041969  0.68121502  0.16348654  1
  H  H25  1  0.41973418  0.68140301  0.22997560  1
  H  H26  1  0.62007618  0.23813734  0.11872995  1
  H  H27  1  0.58737295  0.18606539  0.22251706  1
  H  H28  1  0.60931527  0.31739837  0.21717504  1
  H  H29  1  0.79445763  0.27299005  0.17307934  1
  H  H30  1  0.76150050  0.13986692  0.19248831  1
  H  H31  1  0.93377661  0.22856845  0.30573510  1
  H  H32  1  0.96942564  0.25245106  0.48330924  1
  H  H33  1  0.86835458  0.28117462  0.66530105  1
  H  H34  1  0.73809514  0.33604976  0.79319757  1
  H  H35  1  0.60673548  0.36261822  0.75713193  1
  H  H36  1  0.59019983  0.23226087  0.86442416  1
  H  H37  1  0.69444154  0.16355951  0.83127750  1
  H  H38  1  0.58544096  0.15836014  0.76369406  1
  H  H39  1  0.76094211  0.61603883  0.11772629  1
  H  H40  1  0.82058265  0.58251945  0.21998380  1
  H  H41  1  0.68965707  0.60342774  0.21717961  1
  H  H42  1  0.72894202  0.79104959  0.17518705  1
  H  H43  1  0.86260939  0.75844262  0.19593501  1
  H  H44  1  0.77994574  0.93044363  0.31080253  1
  H  H45  1  0.75129072  0.96667922  0.48702770  1
  H  H46  1  0.71562684  0.86504456  0.66574894  1
  H  H47  1  0.65789862  0.73108865  0.78907562  1
  H  H48  1  0.63900475  0.59811554  0.75025018  1
  H  H49  1  0.76792948  0.59012327  0.86509365  1
  H  H50  1  0.83363453  0.69533359  0.83300839  1
  H  H51  1  0.84076218  0.58306977  0.76719821  1
  Pb  Pb52  1  0.99606141  0.99717394  0.99260599  1
  Pb  Pb53  1  0.00284998  0.49462111  0.00238277  1
  Pb  Pb54  1  0.50701750  0.98752787  0.99727142  1
  Pb  Pb55  1  0.50017764  0.49633322  0.99826001  1
  C  C56  1  0.26841724  0.25441848  0.78444215  1
  C  C57  1  0.25759362  0.23321313  0.67791819  1
  C  C58  1  0.25287425  0.12799806  0.64329739  1
  C  C59  1  0.24199519  0.10744696  0.54545048  1
  C  C60  1  0.23535720  0.19335141  0.48426048  1
  C  C61  1  0.21857964  0.19621163  0.38288174  1
  C  C62  1  0.21362002  0.29689825  0.35037347  1
  C  C63  1  0.18670022  0.32494426  0.25037230  1
  C  C64  1  0.24236541  0.29629292  0.52758777  1
  C  C65  1  0.25924655  0.72949502  0.78425356  1
  C  C66  1  0.23664735  0.73965095  0.67841721  1
  C  C67  1  0.13194626  0.74357954  0.64583567  1
  C  C68  1  0.11091266  0.75504694  0.54880586  1
  C  C69  1  0.19568804  0.76360786  0.48627563  1
  C  C70  1  0.19784123  0.78202966  0.38566904  1
  C  C71  1  0.29752503  0.78983680  0.35190827  1
  C  C72  1  0.32491437  0.81995789  0.25314301  1
  C  C73  1  0.29814411  0.75749977  0.52752582  1
  C  C74  1  0.74551211  0.22192463  0.21602489  1
  C  C75  1  0.76588439  0.23748927  0.32218231  1
  C  C76  1  0.87015806  0.23886485  0.35652986  1
  C  C77  1  0.88963698  0.25071974  0.45436492  1
  C  C78  1  0.80374689  0.26054088  0.51605332  1
  C  C79  1  0.79985741  0.27439408  0.61795108  1
  C  C80  1  0.69962237  0.28196156  0.65084801  1
  C  C81  1  0.67054558  0.30450110  0.75232884  1
  C  C82  1  0.70199531  0.25789746  0.47288191  1
  C  C83  1  0.78191861  0.74162778  0.21760711  1
  C  C84  1  0.76807328  0.76163361  0.32382095  1
  C  C85  1  0.76833787  0.86654375  0.36001169  1
  C  C86  1  0.75347214  0.88624114  0.45724709  1
  C  C87  1  0.74056444  0.79991285  0.51696865  1
  C  C88  1  0.72380587  0.79599952  0.61793147  1
  C  C89  1  0.71589396  0.69498001  0.64893629  1
  C  C90  1  0.69356316  0.66472058  0.74896288  1
  C  C91  1  0.74366312  0.69751474  0.47236009  1
  S  S92  1  0.22876314  0.39351416  0.44200121  1
  S  S93  1  0.39404515  0.77451827  0.44129306  1
  S  S94  1  0.60468195  0.27288905  0.55901023  1
  S  S95  1  0.72713562  0.59958353  0.55626233  1
  I  I96  1  0.27341645  0.92704666  0.00505122  1
  I  I97  1  0.25338574  0.56122367  0.01369047  1
  I  I98  1  0.75622753  0.06735359  0.98083510  1
  I  I99  1  0.74635816  0.43563822  0.99463976  1
  I  I100  1  0.08051632  0.26193938  0.00641966  1
  I  I101  1  0.94553804  0.74950190  0.97966461  1
  I  I102  1  0.44429136  0.24649972  0.00340206  1
  I  I103  1  0.57254357  0.73769895  0.00228369  1
  I  I104  1  0.01927541  0.00530343  0.77111720  1
  I  I105  1  0.01263588  0.99722030  0.22465471  1
  I  I106  1  0.99539511  0.47209696  0.76111457  1
  I  I107  1  0.01123340  0.55125851  0.22712533  1
  I  I108  1  0.49601799  0.98607301  0.75730306  1
  I  I109  1  0.54974047  0.99344052  0.22221623  1
  I  I110  1  0.45763129  0.49983158  0.77268707  1
  I  I111  1  0.51576679  0.50038536  0.24297541  1
  N  N112  1  0.23531607  0.36379747  0.80959718  1
  N  N113  1  0.27939019  0.36001818  0.19315836  1
  N  N114  1  0.25358791  0.31725541  0.62182815  1
  N  N115  1  0.37050202  0.75566645  0.80569162  1
  N  N116  1  0.36860669  0.72986869  0.19249415  1
  N  N117  1  0.31952222  0.74507804  0.62082496  1
  N  N118  1  0.63399113  0.24358412  0.19207728  1
  N  N119  1  0.63348229  0.20981533  0.80454727  1
  N  N120  1  0.68202378  0.24685813  0.37856921  1
  N  N121  1  0.76070571  0.62922804  0.19130244  1
  N  N122  1  0.78885779  0.63236774  0.80549957  1
  N  N123  1  0.75601053  0.67736974  0.37831607  1
