# generated using pymatgen
data_H16PbC11S(I2N)2
_symmetry_space_group_name_H-M   'P 1'
_cell_length_a   13.01080983
_cell_length_b   12.63944069
_cell_length_c   14.90546959
_cell_angle_alpha   92.89814646
_cell_angle_beta   90.57504353
_cell_angle_gamma   90.43661383
_symmetry_Int_Tables_number   1
_chemical_formula_structural   H16PbC11S(I2N)2
_chemical_formula_sum   'H64 Pb4 C44 S4 I16 N8'
_cell_volume   2447.85546255
_cell_formula_units_Z   4
loop_
 _symmetry_equiv_pos_site_id
 _symmetry_equiv_pos_as_xyz
  1  'x, y, z'
loop_
 _atom_site_type_symbol
 _atom_site_label
 _atom_site_symmetry_multiplicity
 _atom_site_fract_x
 _atom_site_fract_y
 _atom_site_fract_z
 _atom_site_occupancy
  H  H0  1  0.31210527  0.04464596  0.71996904  1
  H  H1  1  0.42271585  0.12467384  0.70244945  1
  H  H2  1  0.38450613  0.09928932  0.81289255  1
  H  H3  1  0.33503757  0.28032024  0.78106865  1
  H  H4  1  0.15265554  0.13527689  0.78256145  1
  H  H5  1  0.22405589  0.17680220  0.87106432  1
  H  H6  1  0.15315245  0.26452065  0.81392055  1
  H  H7  1  0.27402285  0.41416673  0.69700296  1
  H  H8  1  0.23206089  0.47970478  0.54703597  1
  H  H9  1  0.18499701  0.41968107  0.36646769  1
  H  H10  1  0.08798666  0.18846853  0.22805383  1
  H  H11  1  0.12467851  0.32425218  0.22345957  1
  H  H12  1  0.26113762  0.13699281  0.19125517  1
  H  H13  1  0.20157193  0.20571772  0.11457801  1
  H  H14  1  0.29594547  0.26297709  0.17765725  1
  H  H15  1  0.23767978  0.08978537  0.59516515  1
  H  H16  1  0.05100886  0.69525499  0.72460135  1
  H  H17  1  0.12272685  0.57825008  0.69873281  1
  H  H18  1  0.09895521  0.61869966  0.81175585  1
  H  H19  1  0.27703484  0.66283954  0.77952688  1
  H  H20  1  0.15179791  0.86061141  0.78551879  1
  H  H21  1  0.16712266  0.78294951  0.87155265  1
  H  H22  1  0.26880089  0.84523961  0.83159451  1
  H  H23  1  0.41204067  0.72335536  0.69592027  1
  H  H24  1  0.48048469  0.76516069  0.54634752  1
  H  H25  1  0.42813459  0.80510429  0.36807025  1
  H  H26  1  0.22256985  0.91446872  0.24110747  1
  H  H27  1  0.34148413  0.84940582  0.22396421  1
  H  H28  1  0.14246610  0.72912705  0.21369173  1
  H  H29  1  0.18070632  0.80040838  0.13045236  1
  H  H30  1  0.25131020  0.69701598  0.16205734  1
  H  H31  1  0.10084970  0.76169905  0.60052587  1
  H  H32  1  0.93739558  0.21282184  0.26338065  1
  H  H33  1  0.87019080  0.09437193  0.28407637  1
  H  H34  1  0.88708495  0.13149885  0.17227529  1
  H  H35  1  0.71013585  0.17173898  0.21473505  1
  H  H36  1  0.83902574  0.36902248  0.21147505  1
  H  H37  1  0.79519351  0.29575571  0.12369014  1
  H  H38  1  0.71228948  0.36102301  0.18997285  1
  H  H39  1  0.57896387  0.23685991  0.30721705  1
  H  H40  1  0.51848753  0.28029880  0.46238375  1
  H  H41  1  0.58106069  0.33185098  0.64166136  1
  H  H42  1  0.80524941  0.43615438  0.77139148  1
  H  H43  1  0.67470854  0.39404389  0.77998270  1
  H  H44  1  0.86410120  0.26770463  0.80178367  1
  H  H45  1  0.78115081  0.30983422  0.88021698  1
  H  H46  1  0.74226131  0.21306761  0.80315422  1
  H  H47  1  0.89546450  0.27100159  0.39563308  1
  H  H48  1  0.79450390  0.93906610  0.27366722  1
  H  H49  1  0.90865186  0.86677769  0.29411265  1
  H  H50  1  0.86600829  0.88436236  0.18264022  1
  H  H51  1  0.82389325  0.70276358  0.22151094  1
  H  H52  1  0.63707166  0.83888655  0.21569453  1
  H  H53  1  0.70284900  0.79025903  0.12905629  1
  H  H54  1  0.64042188  0.70565464  0.19396752  1
  H  H55  1  0.77105599  0.57182381  0.31321318  1
  H  H56  1  0.72660918  0.51343000  0.46460413  1
  H  H57  1  0.66828388  0.58296296  0.64012642  1
  H  H58  1  0.56444016  0.81949992  0.76344669  1
  H  H59  1  0.60274535  0.68592980  0.77596151  1
  H  H60  1  0.71880546  0.88728895  0.81321827  1
  H  H61  1  0.68443044  0.79425077  0.88411269  1
  H  H62  1  0.77971503  0.76793046  0.80981515  1
  H  H63  1  0.72889091  0.89931318  0.40034034  1
  Pb  Pb64  1  0.99517598  -0.00417234  0.96521136  1
  Pb  Pb65  1  1.00125871  0.48984172  1.00272285  1
  Pb  Pb66  1  0.52137411  0.02434320  1.00343591  1
  Pb  Pb67  1  0.48905481  0.50950796  1.00184166  1
  C  C68  1  0.35599835  0.11471998  0.74544553  1
  C  C69  1  0.29139448  0.21421743  0.74768071  1
  C  C70  1  0.25763277  0.24847127  0.65589009  1
  C  C71  1  0.25483262  0.35801655  0.64133323  1
  C  C72  1  0.23231386  0.39490834  0.55753738  1
  C  C73  1  0.21235043  0.32191053  0.48496210  1
  C  C74  1  0.19195300  0.34121786  0.39287805  1
  C  C75  1  0.17926798  0.25026619  0.33992790  1
  C  C76  1  0.15006458  0.24606396  0.24323255  1
  C  C77  1  0.21387161  0.21164184  0.50021105  1
  C  C78  1  0.23596303  0.17460488  0.58517524  1
  C  C79  1  0.11632207  0.64738912  0.74549417  1
  C  C80  1  0.21634698  0.70968697  0.74865397  1
  C  C81  1  0.25304400  0.74219066  0.65803960  1
  C  C82  1  0.35970691  0.74405459  0.64203319  1
  C  C83  1  0.39810154  0.76543988  0.55842661  1
  C  C84  1  0.32946945  0.78424249  0.48771816  1
  C  C85  1  0.35118295  0.80070082  0.39569111  1
  C  C86  1  0.26465883  0.81197975  0.34448892  1
  C  C87  1  0.26324054  0.83943737  0.24897241  1
  C  C88  1  0.22197891  0.78363065  0.50455428  1
  C  C89  1  0.18342447  0.76317380  0.58921156  1
  C  C90  1  0.87251992  0.16193201  0.24096240  1
  C  C91  1  0.77179712  0.22083381  0.24686978  1
  C  C92  1  0.74018310  0.25291177  0.34153447  1
  C  C93  1  0.63429685  0.25592443  0.36118640  1
  C  C94  1  0.60037327  0.27917994  0.44767679  1
  C  C95  1  0.67267796  0.30002644  0.51726284  1
  C  C96  1  0.65624870  0.32429300  0.61059513  1
  C  C97  1  0.74576517  0.33977205  0.65866472  1
  C  C98  1  0.75121893  0.37033128  0.75633251  1
  C  C99  1  0.77930728  0.29747022  0.49677954  1
  C  C100  1  0.81338458  0.27406458  0.40941556  1
  C  C101  1  0.84038046  0.87050665  0.25075921  1
  C  C102  1  0.77963664  0.76812601  0.25327581  1
  C  C103  1  0.75106710  0.73817128  0.34686654  1
  C  C104  1  0.75107358  0.63004328  0.36639623  1
  C  C105  1  0.72717596  0.59734773  0.45099364  1
  C  C106  1  0.70385358  0.67375083  0.51951928  1
  C  C107  1  0.67796777  0.65987189  0.61118973  1
  C  C108  1  0.66217722  0.75378065  0.65899386  1
  C  C109  1  0.62807279  0.76355942  0.75397297  1
  C  C110  1  0.70556331  0.78277897  0.49978227  1
  C  C111  1  0.72823806  0.81532574  0.41383861  1
  S  S112  1  0.18874873  0.13614065  0.40125429  1
  S  S113  1  0.15187352  0.80626797  0.40740109  1
  S  S114  1  0.85499088  0.32563409  0.59184437  1
  S  S115  1  0.67743802  0.86390461  0.59385052  1
  I  I116  1  0.27927467  0.99712989  0.97426609  1
  I  I117  1  0.25396825  0.52700117  0.04829848  1
  I  I118  1  0.77109013  0.99599588  0.02915086  1
  I  I119  1  0.75913668  0.46921658  0.99370245  1
  I  I120  1  0.02405079  0.24313045  0.02269633  1
  I  I121  1  -0.00008294  0.74434536  0.97288806  1
  I  I122  1  0.47603776  0.26419896  0.05262051  1
  I  I123  1  0.53087170  0.76259423  0.98750996  1
  I  I124  1  0.01658032  0.99041968  0.74280740  1
  I  I125  1  0.06566665  0.98425648  0.16502086  1
  I  I126  1  0.02394964  0.39673632  0.79414444  1
  I  I127  1  0.98746755  0.51611424  0.21892120  1
  I  I128  1  0.62454462  0.05888227  0.79511849  1
  I  I129  1  0.51506791  0.00234080  0.21532200  1
  I  I130  1  0.47063764  0.49380259  0.78757050  1
  I  I131  1  0.54847759  0.53461399  0.21170465  1
  N  N132  1  0.20005122  0.19721869  0.80789783  1
  N  N133  1  0.23408352  0.21135164  0.17881895  1
  N  N134  1  0.20186900  0.80537820  0.81277313  1
  N  N135  1  0.20720424  0.76086051  0.18550603  1
  N  N136  1  0.77947796  0.31740325  0.18988641  1
  N  N137  1  0.78674757  0.28236563  0.81326417  1
  N  N138  1  0.68427305  0.77609480  0.19459812  1
  N  N139  1  0.71045712  0.80514049  0.81898604  1
