# generated using pymatgen
data_H18PbC10(I2N)2
_symmetry_space_group_name_H-M   'P 1'
_cell_length_a   12.44233143
_cell_length_b   12.43132864
_cell_length_c   14.00064982
_cell_angle_alpha   90.98719781
_cell_angle_beta   91.74740736
_cell_angle_gamma   90.27231033
_symmetry_Int_Tables_number   1
_chemical_formula_structural   H18PbC10(I2N)2
_chemical_formula_sum   'H72 Pb4 C40 I16 N8'
_cell_volume   2164.18796021
_cell_formula_units_Z   4
loop_
 _symmetry_equiv_pos_site_id
 _symmetry_equiv_pos_as_xyz
  1  'x, y, z'
loop_
 _atom_site_type_symbol
 _atom_site_label
 _atom_site_symmetry_multiplicity
 _atom_site_fract_x
 _atom_site_fract_y
 _atom_site_fract_z
 _atom_site_occupancy
  H  H0  1  0.18732367  0.10154183  0.73532494  1
  H  H1  1  0.09695484  0.20213425  0.77423886  1
  H  H2  1  0.11743399  0.18158018  0.65019172  1
  H  H3  1  0.21693903  0.34619770  0.71363253  1
  H  H4  1  0.32800529  0.19069252  0.84141427  1
  H  H5  1  0.36676397  0.31971815  0.82433158  1
  H  H6  1  0.25070340  0.29295650  0.87422634  1
  H  H7  1  0.37139318  0.16149076  0.66778962  1
  H  H8  1  0.40180240  0.30109508  0.66625540  1
  H  H9  1  0.29161114  0.07421306  0.52867190  1
  H  H10  1  0.22940442  0.08348390  0.35869414  1
  H  H11  1  0.15316598  0.33599245  0.23578148  1
  H  H12  1  0.15146483  0.19231453  0.22783766  1
  H  H13  1  0.27707425  0.27318557  0.12092904  1
  H  H14  1  0.34645091  0.33221054  0.21102200  1
  H  H15  1  0.34550934  0.19702307  0.20135292  1
  H  H16  1  0.23718697  0.42994992  0.37793135  1
  H  H17  1  0.29930758  0.42033356  0.54747728  1
  H  H18  1  0.10012900  0.80898215  0.73424808  1
  H  H19  1  0.19917377  0.90304272  0.77714059  1
  H  H20  1  0.17920059  0.87904116  0.65207000  1
  H  H21  1  0.34502566  0.78478205  0.71426782  1
  H  H22  1  0.19245104  0.67596599  0.84094377  1
  H  H23  1  0.32079621  0.63714713  0.82245301  1
  H  H24  1  0.29493789  0.75562294  0.87439734  1
  H  H25  1  0.15941571  0.62799721  0.66325234  1
  H  H26  1  0.29840258  0.59655537  0.66212036  1
  H  H27  1  0.07314381  0.71074536  0.52698160  1
  H  H28  1  0.08356825  0.77423544  0.36009326  1
  H  H29  1  0.33667153  0.84212438  0.23975619  1
  H  H30  1  0.19344252  0.84891035  0.23247369  1
  H  H31  1  0.26667651  0.71835272  0.12204820  1
  H  H32  1  0.32051214  0.64664823  0.21105934  1
  H  H33  1  0.18554121  0.65713683  0.19956700  1
  H  H34  1  0.42899539  0.75834244  0.38054535  1
  H  H35  1  0.41906164  0.69683456  0.54767353  1
  H  H36  1  0.89874711  0.30884390  0.26199883  1
  H  H37  1  0.79877289  0.40167209  0.22374082  1
  H  H38  1  0.82209663  0.37916417  0.34764917  1
  H  H39  1  0.65414308  0.28356423  0.28554229  1
  H  H40  1  0.80232362  0.16459219  0.15927115  1
  H  H41  1  0.67028247  0.13877594  0.17442334  1
  H  H42  1  0.70888764  0.25198206  0.12391444  1
  H  H43  1  0.83795330  0.12696370  0.33251284  1
  H  H44  1  0.69824876  0.09667135  0.33370087  1
  H  H45  1  0.92623907  0.20773350  0.47131973  1
  H  H46  1  0.91813250  0.26873235  0.64093602  1
  H  H47  1  0.66695325  0.34206696  0.76293631  1
  H  H48  1  0.81029837  0.34394925  0.77129417  1
  H  H49  1  0.73692499  0.21694371  0.87824054  1
  H  H50  1  0.66987335  0.14925414  0.79069384  1
  H  H51  1  0.80463132  0.14723832  0.79539692  1
  H  H52  1  0.57222836  0.25862003  0.62026698  1
  H  H53  1  0.58004274  0.19855419  0.45085858  1
  H  H54  1  0.68989113  0.89676443  0.26111370  1
  H  H55  1  0.59918480  0.79483159  0.21820967  1
  H  H56  1  0.62151174  0.81607149  0.34334179  1
  H  H57  1  0.72091055  0.65286897  0.28496795  1
  H  H58  1  0.82858836  0.81049935  0.16169442  1
  H  H59  1  0.87480588  0.68534274  0.18446861  1
  H  H60  1  0.75729656  0.70208055  0.12635151  1
  H  H61  1  0.87248818  0.84132484  0.33936019  1
  H  H62  1  0.90539179  0.70278622  0.34364505  1
  H  H63  1  0.78950502  0.92714196  0.47311816  1
  H  H64  1  0.72654239  0.91706381  0.63908084  1
  H  H65  1  0.65955823  0.66291753  0.76196125  1
  H  H66  1  0.65149613  0.80633218  0.76732273  1
  H  H67  1  0.78286857  0.73501970  0.88040359  1
  H  H68  1  0.85450676  0.68043579  0.79316359  1
  H  H69  1  0.84240138  0.81620942  0.80206762  1
  H  H70  1  0.74072482  0.57089410  0.62246876  1
  H  H71  1  0.80194183  0.58119274  0.45595096  1
  Pb  Pb72  1  0.99207052  0.00686286  -0.00053997  1
  Pb  Pb73  1  0.99439858  0.50799685  0.99340005  1
  Pb  Pb74  1  0.49550681  0.01122524  0.99620093  1
  Pb  Pb75  1  0.49262642  0.51062171  0.01303728  1
  C  C76  1  0.15739259  0.18289488  0.72109587  1
  C  C77  1  0.24857407  0.26446737  0.72368414  1
  C  C78  1  0.33730319  0.24119717  0.65253399  1
  C  C79  1  0.29923356  0.24649128  0.54975265  1
  C  C80  1  0.27910302  0.15228845  0.49566544  1
  C  C81  1  0.24474525  0.15742635  0.40008403  1
  C  C82  1  0.22996847  0.25724954  0.35668432  1
  C  C83  1  0.19890066  0.26286918  0.25223381  1
  C  C84  1  0.24885172  0.35174544  0.41087588  1
  C  C85  1  0.28329136  0.34626475  0.50633042  1
  C  C86  1  0.18097944  0.84099143  0.72218772  1
  C  C87  1  0.26378582  0.75188505  0.72370231  1
  C  C88  1  0.23966964  0.66132062  0.65004690  1
  C  C89  1  0.24528710  0.69915702  0.54873636  1
  C  C90  1  0.15137065  0.72168238  0.49507402  1
  C  C91  1  0.15702038  0.75688944  0.40131268  1
  C  C92  1  0.25673573  0.76962824  0.35890708  1
  C  C93  1  0.26203444  0.79926531  0.25546341  1
  C  C94  1  0.35086319  0.74848748  0.41277226  1
  C  C95  1  0.34515092  0.71380621  0.50667770  1
  C  C96  1  0.81834775  0.34013141  0.27677650  1
  C  C97  1  0.73502580  0.25063107  0.27514517  1
  C  C98  1  0.75837566  0.16103317  0.34694231  1
  C  C99  1  0.75390106  0.19894574  0.44947498  1
  C  C100  1  0.84840279  0.21940687  0.50392096  1
  C  C101  1  0.84400410  0.25311299  0.59927927  1
  C  C102  1  0.74461592  0.26686136  0.64226542  1
  C  C103  1  0.73979393  0.29645762  0.74668083  1
  C  C104  1  0.65001397  0.24788398  0.58757139  1
  C  C105  1  0.65443257  0.21429897  0.49228855  1
  C  C106  1  0.66027350  0.81503612  0.27400244  1
  C  C107  1  0.75207088  0.73505636  0.27625405  1
  C  C108  1  0.83964713  0.76074763  0.35293671  1
  C  C109  1  0.80019627  0.75497133  0.45316616  1
  C  C110  1  0.77789202  0.84882667  0.50551448  1
  C  C111  1  0.74294065  0.84330190  0.59899202  1
  C  C112  1  0.73045786  0.74343952  0.64243561  1
  C  C113  1  0.70154660  0.73802193  0.74581601  1
  C  C114  1  0.75070513  0.64918582  0.58966347  1
  C  C115  1  0.78506977  0.65504008  0.49601573  1
  I  I116  1  0.24505576  0.04102199  0.96601810  1
  I  I117  1  0.24060993  0.44473685  0.00400741  1
  I  I118  1  0.74372704  0.94442609  0.02153563  1
  I  I119  1  0.74086344  0.55443455  0.99592600  1
  I  I120  1  0.93782774  0.25566955  0.00750360  1
  I  I121  1  0.05849279  0.75472375  0.98795986  1
  I  I122  1  0.55207199  0.26332531  0.98468822  1
  I  I123  1  0.44591732  0.76120926  0.01975362  1
  I  I124  1  0.92984230  0.99580563  0.77247060  1
  I  I125  1  0.00172169  1.00007403  0.22657861  1
  I  I126  1  0.98527538  0.51584376  0.76640156  1
  I  I127  1  0.02235875  0.54515261  0.22515670  1
  I  I128  1  0.51492406  0.00839481  0.76962051  1
  I  I129  1  0.48136799  0.05460252  0.22658923  1
  I  I130  1  0.47277132  0.50326291  0.77981021  1
  I  I131  1  0.47563189  0.49896373  0.24018794  1
  N  N132  1  0.30196900  0.26642788  0.82177578  1
  N  N133  1  0.29787171  0.26586036  0.19259536  1
  N  N134  1  0.26772500  0.70201968  0.82142651  1
  N  N135  1  0.25825997  0.69904819  0.19307980  1
  N  N136  1  0.72958557  0.19827368  0.17709100  1
  N  N137  1  0.73787331  0.19681278  0.80632876  1
  N  N138  1  0.80636003  0.73378801  0.18141136  1
  N  N139  1  0.80180893  0.74281323  0.80944049  1
