# generated using pymatgen
data_H15PbC9I4N2F
_symmetry_space_group_name_H-M   'P 1'
_cell_length_a   12.47167762
_cell_length_b   12.34646087
_cell_length_c   13.89335594
_cell_angle_alpha   89.71584221
_cell_angle_beta   90.10084367
_cell_angle_gamma   88.87486059
_symmetry_Int_Tables_number   1
_chemical_formula_structural   H15PbC9I4N2F
_chemical_formula_sum   'H60 Pb4 C36 I16 N8 F4'
_cell_volume   2138.87147684
_cell_formula_units_Z   4
loop_
 _symmetry_equiv_pos_site_id
 _symmetry_equiv_pos_as_xyz
  1  'x, y, z'
loop_
 _atom_site_type_symbol
 _atom_site_label
 _atom_site_symmetry_multiplicity
 _atom_site_fract_x
 _atom_site_fract_y
 _atom_site_fract_z
 _atom_site_occupancy
  H  H0  1  0.25361662  0.29477801  0.85220059  1
  H  H1  1  0.12898350  0.26006247  0.82908842  1
  H  H2  1  0.21471292  0.16876813  0.87694310  1
  H  H3  1  0.31897179  0.15846846  0.73249789  1
  H  H4  1  0.18213849  0.12860150  0.71143139  1
  H  H5  1  0.14585494  0.32394163  0.66410315  1
  H  H6  1  0.28132738  0.35330612  0.68268303  1
  H  H7  1  0.25981479  0.43877119  0.52496438  1
  H  H8  1  0.29140672  0.42015665  0.35022905  1
  H  H9  1  0.34734546  0.30160668  0.21601373  1
  H  H10  1  0.34364610  0.15735733  0.22770894  1
  H  H11  1  0.15096821  0.30505690  0.20488389  1
  H  H12  1  0.20730520  0.22538938  0.12039762  1
  H  H13  1  0.14880665  0.16838959  0.21549893  1
  H  H14  1  0.27910472  0.07179953  0.38134686  1
  H  H15  1  0.30196787  0.73845019  0.85207070  1
  H  H16  1  0.26012731  0.86504654  0.83616993  1
  H  H17  1  0.17650050  0.77483761  0.88232516  1
  H  H18  1  0.16503315  0.67832885  0.73320868  1
  H  H19  1  0.12979334  0.81781872  0.71807176  1
  H  H20  1  0.31739283  0.85824065  0.66630954  1
  H  H21  1  0.35651627  0.72208216  0.68409945  1
  H  H22  1  0.43696929  0.74093679  0.52785221  1
  H  H23  1  0.41817590  0.70827850  0.35287296  1
  H  H24  1  0.30016057  0.64762877  0.22012773  1
  H  H25  1  0.15807613  0.66243358  0.22900098  1
  H  H26  1  0.31329086  0.84391687  0.20568548  1
  H  H27  1  0.22712245  0.79505199  0.12341144  1
  H  H28  1  0.17929175  0.85997920  0.21924979  1
  H  H29  1  0.07352049  0.72259798  0.38388096  1
  H  H30  1  0.70812701  0.24818289  0.14588396  1
  H  H31  1  0.74792014  0.37314977  0.16547365  1
  H  H32  1  0.83463687  0.28116030  0.12273264  1
  H  H33  1  0.84148200  0.18098182  0.26943173  1
  H  H34  1  0.87119272  0.31914098  0.28897972  1
  H  H35  1  0.67624030  0.35636048  0.33176940  1
  H  H36  1  0.64836329  0.21894861  0.31543907  1
  H  H37  1  0.56250755  0.24424487  0.47241250  1
  H  H38  1  0.58050998  0.21335565  0.64785855  1
  H  H39  1  0.69721983  0.15612495  0.78320254  1
  H  H40  1  0.83965619  0.15990940  0.77314056  1
  H  H41  1  0.69558509  0.35688143  0.79064177  1
  H  H42  1  0.76715928  0.29689079  0.87892119  1
  H  H43  1  0.83094157  0.35550464  0.78706146  1
  H  H44  1  0.92512599  0.22306724  0.61919270  1
  H  H45  1  0.74698281  0.69676068  0.14879365  1
  H  H46  1  0.62395531  0.74438354  0.16951599  1
  H  H47  1  0.71455857  0.82449417  0.11838777  1
  H  H48  1  0.81708379  0.83661706  0.26294694  1
  H  H49  1  0.68019155  0.87235691  0.28459713  1
  H  H50  1  0.64507419  0.67898604  0.33404998  1
  H  H51  1  0.78084704  0.64515696  0.31682654  1
  H  H52  1  0.75758306  0.56235294  0.47438699  1
  H  H53  1  0.78811511  0.58121780  0.64918800  1
  H  H54  1  0.84717467  0.70042188  0.78190841  1
  H  H55  1  0.83233924  0.84419024  0.77254174  1
  H  H56  1  0.65271846  0.68703017  0.79256952  1
  H  H57  1  0.70027701  0.77158645  0.87688818  1
  H  H58  1  0.63740968  0.82331411  0.78134530  1
  H  H59  1  0.77593643  0.92979785  0.61585537  1
  Pb  Pb60  1  0.99163754  0.99605894  0.00916379  1
  Pb  Pb61  1  1.00514162  0.49979685  0.99840841  1
  Pb  Pb62  1  0.49688238  0.00349730  -0.00155661  1
  Pb  Pb63  1  0.50122403  0.49526413  0.99824100  1
  C  C64  1  0.23756914  0.19364764  0.72808427  1
  C  C65  1  0.22777380  0.28873340  0.65848657  1
  C  C66  1  0.25069519  0.26778748  0.55343287  1
  C  C67  1  0.26380749  0.35819991  0.49292373  1
  C  C68  1  0.28094761  0.34802436  0.39458396  1
  C  C69  1  0.28607923  0.24518350  0.35235151  1
  C  C70  1  0.30193555  0.23382260  0.24566649  1
  C  C71  1  0.27434419  0.15354019  0.41068682  1
  C  C72  1  0.25669636  0.16663248  0.50872467  1
  C  C73  1  0.19655277  0.76070188  0.73144669  1
  C  C74  1  0.28845675  0.77444371  0.66087687  1
  C  C75  1  0.26767221  0.75102178  0.55597634  1
  C  C76  1  0.35726566  0.73709216  0.49570002  1
  C  C77  1  0.34700817  0.71935344  0.39744291  1
  C  C78  1  0.24513909  0.71439974  0.35520704  1
  C  C79  1  0.23460415  0.69895088  0.24843842  1
  C  C80  1  0.15447479  0.72691429  0.41332032  1
  C  C81  1  0.16738788  0.74528762  0.51132318  1
  C  C82  1  0.80683311  0.26335475  0.27168460  1
  C  C83  1  0.71163778  0.27395781  0.33941207  1
  C  C84  1  0.73185987  0.25226097  0.44518404  1
  C  C85  1  0.64207057  0.24020629  0.50516634  1
  C  C86  1  0.65193691  0.22347487  0.60385814  1
  C  C87  1  0.75350387  0.21783334  0.64701015  1
  C  C88  1  0.76426310  0.20226807  0.75393767  1
  C  C89  1  0.84431466  0.22838369  0.58917963  1
  C  C90  1  0.83181269  0.24549511  0.49077968  1
  C  C91  1  0.73565140  0.80500756  0.26855210  1
  C  C92  1  0.72664746  0.71181662  0.33983259  1
  C  C93  1  0.74886447  0.73345941  0.44478933  1
  C  C94  1  0.76136696  0.64298613  0.50595983  1
  C  C95  1  0.77783858  0.65334095  0.60426955  1
  C  C96  1  0.78249434  0.75626036  0.64589425  1
  C  C97  1  0.79666204  0.76679285  0.75279507  1
  C  C98  1  0.77144961  0.84795638  0.58702626  1
  C  C99  1  0.75487112  0.83479282  0.48876343  1
  I  I100  1  0.24573578  0.03282265  1.00298679  1
  I  I101  1  0.25740278  0.43724481  0.99001990  1
  I  I102  1  0.74730093  0.94998055  0.98791391  1
  I  I103  1  0.75692766  0.54613718  0.01727873  1
  I  I104  1  0.96292169  0.24743187  0.99148417  1
  I  I105  1  0.05040377  0.74677001  0.01627587  1
  I  I106  1  0.57459897  0.24546453  -0.00161043  1
  I  I107  1  0.45553632  0.74746686  0.99007724  1
  I  I108  1  0.00824995  0.00011648  0.78237858  1
  I  I109  1  0.02683802  0.00312736  0.24440384  1
  I  I110  1  0.99084430  0.47769508  0.76560069  1
  I  I111  1  0.02319967  0.47243585  0.22678345  1
  I  I112  1  0.50124232  0.98907437  0.76811516  1
  I  I113  1  0.47667321  0.96259939  0.22957388  1
  I  I114  1  0.54841787  0.50643003  0.76527153  1
  I  I115  1  0.50956485  0.50609915  0.22546129  1
  N  N116  1  0.20744757  0.23179644  0.82662213  1
  N  N117  1  0.19559733  0.23353533  0.19358773  1
  N  N118  1  0.23635972  0.78566302  0.83065286  1
  N  N119  1  0.23965395  0.80602640  0.19630543  1
  N  N120  1  0.77185344  0.29270348  0.17160019  1
  N  N121  1  0.76416056  0.30944025  0.80539163  1
  N  N122  1  0.70385869  0.76497089  0.17126849  1
  N  N123  1  0.69004096  0.76108780  0.80365250  1
  F  F124  1  0.24504210  0.07375028  0.56219325  1
  F  F125  1  0.07586414  0.75816527  0.56484733  1
  F  F126  1  0.92403164  0.25569289  0.43818833  1
  F  F127  1  0.74417941  0.92743829  0.43438088  1
