# generated using pymatgen
data_H11PbC6I4N3
_symmetry_space_group_name_H-M   'P 1'
_cell_length_a   12.41992644
_cell_length_b   12.30895666
_cell_length_c   11.40335187
_cell_angle_alpha   89.02267102
_cell_angle_beta   89.91404758
_cell_angle_gamma   89.79081386
_symmetry_Int_Tables_number   1
_chemical_formula_structural   H11PbC6I4N3
_chemical_formula_sum   'H44 Pb4 C24 I16 N12'
_cell_volume   1743.03562387
_cell_formula_units_Z   4
loop_
 _symmetry_equiv_pos_site_id
 _symmetry_equiv_pos_as_xyz
  1  'x, y, z'
loop_
 _atom_site_type_symbol
 _atom_site_label
 _atom_site_symmetry_multiplicity
 _atom_site_fract_x
 _atom_site_fract_y
 _atom_site_fract_z
 _atom_site_occupancy
  H  H0  1  0.32257981  0.13838073  0.73241889  1
  H  H1  1  0.25797444  0.19918850  0.84298835  1
  H  H2  1  0.18795321  0.13785622  0.73607253  1
  H  H3  1  0.32427843  0.33795310  0.71351623  1
  H  H4  1  0.18137194  0.33688419  0.71582955  1
  H  H5  1  0.25319838  0.44143257  0.50565522  1
  H  H6  1  0.25207570  0.39889543  0.29132545  1
  H  H7  1  0.24989378  0.11133645  0.19421523  1
  H  H8  1  0.18230637  0.22376926  0.15773099  1
  H  H9  1  0.31713661  0.22323840  0.15578953  1
  H  H10  1  0.25004682  0.05783372  0.38939722  1
  H  H11  1  0.14116423  0.68157748  0.73450803  1
  H  H12  1  0.20317972  0.74219144  0.84628610  1
  H  H13  1  0.14294619  0.81747299  0.73927501  1
  H  H14  1  0.33970411  0.67698010  0.71899355  1
  H  H15  1  0.33810675  0.82172379  0.71672130  1
  H  H16  1  0.43931524  0.74737719  0.50912014  1
  H  H17  1  0.39402417  0.74547600  0.29484113  1
  H  H18  1  0.10716918  0.74518132  0.19865228  1
  H  H19  1  0.21755999  0.81360665  0.15962897  1
  H  H20  1  0.21855220  0.67749721  0.16176121  1
  H  H21  1  0.05752305  0.74796136  0.39288403  1
  H  H22  1  0.85707169  0.18257560  0.26069061  1
  H  H23  1  0.79682767  0.25779192  0.15365195  1
  H  H24  1  0.85881999  0.31847578  0.26542356  1
  H  H25  1  0.66189808  0.17828016  0.28319689  1
  H  H26  1  0.66029411  0.32302631  0.28098502  1
  H  H27  1  0.56068395  0.25264739  0.49081382  1
  H  H28  1  0.60596221  0.25460020  0.70509267  1
  H  H29  1  0.89281108  0.25482810  0.80129550  1
  H  H30  1  0.78149230  0.32266453  0.83810608  1
  H  H31  1  0.78234692  0.18654879  0.84037672  1
  H  H32  1  0.94246538  0.25199314  0.60706952  1
  H  H33  1  0.81209572  0.86215243  0.26386460  1
  H  H34  1  0.74203278  0.80081116  0.15697178  1
  H  H35  1  0.67746653  0.86164269  0.26755619  1
  H  H36  1  0.81865761  0.66312692  0.28412413  1
  H  H37  1  0.67575224  0.66207145  0.28646033  1
  H  H38  1  0.74681156  0.55858027  0.49429394  1
  H  H39  1  0.74792213  0.60109705  0.70863248  1
  H  H40  1  0.75018660  0.88864051  0.80575326  1
  H  H41  1  0.68291884  0.77672719  0.84417018  1
  H  H42  1  0.81774100  0.77617857  0.84223885  1
  H  H43  1  0.75006302  0.94216511  0.61057919  1
  Pb  Pb44  1  0.99985875  0.99989297  0.00006417  1
  Pb  Pb45  1  0.99999975  0.49981657  0.00012972  1
  Pb  Pb46  1  0.50001973  0.99967059  1.00000429  1
  Pb  Pb47  1  0.49984888  0.49971600  0.00044889  1
  C  C48  1  0.25295865  0.29070330  0.68808047  1
  C  C49  1  0.25169801  0.27098399  0.55801316  1
  C  C50  1  0.25198809  0.35754595  0.47675406  1
  C  C51  1  0.25125495  0.33415928  0.35770863  1
  C  C52  1  0.25023750  0.22509882  0.32704821  1
  C  C53  1  0.25019060  0.14358419  0.41280580  1
  C  C54  1  0.29249786  0.74912785  0.69153447  1
  C  C55  1  0.27111317  0.74892681  0.56153347  1
  C  C56  1  0.35576060  0.74780231  0.48023329  1
  C  C57  1  0.33081030  0.74669681  0.36126437  1
  C  C58  1  0.22222561  0.74671652  0.33072186  1
  C  C59  1  0.14274356  0.74796796  0.41652259  1
  C  C60  1  0.70750590  0.25087042  0.30841153  1
  C  C61  1  0.72889666  0.25105032  0.43841888  1
  C  C62  1  0.64423399  0.25220499  0.51971547  1
  C  C63  1  0.66918624  0.25333402  0.63866460  1
  C  C64  1  0.77774741  0.25330805  0.66922143  1
  C  C65  1  0.85726322  0.25200501  0.58342693  1
  C  C66  1  0.74707816  0.70931513  0.31188685  1
  C  C67  1  0.74835186  0.72904261  0.44195599  1
  C  C68  1  0.74803941  0.64245697  0.52321946  1
  C  C69  1  0.74877023  0.66584149  0.64223131  1
  C  C70  1  0.74981664  0.77488273  0.67291865  1
  C  C71  1  0.74989473  0.85643150  0.58716724  1
  I  I72  1  0.25020762  0.94567099  0.00498333  1
  I  I73  1  0.24990717  0.56151133  0.99828494  1
  I  I74  1  0.74967327  0.05463543  0.99524210  1
  I  I75  1  0.75015903  0.43893337  1.00143345  1
  I  I76  1  0.06120272  0.25005475  0.98123560  1
  I  I77  1  0.93883818  0.74972123  0.01876823  1
  I  I78  1  0.43479816  0.25038472  0.98896470  1
  I  I79  1  0.56533302  0.74918844  0.01113585  1
  I  I80  1  0.01951381  0.99856433  0.71961096  1
  I  I81  1  0.98047519  0.00138556  0.28047645  1
  I  I82  1  0.01171959  0.51276406  0.71966412  1
  I  I83  1  0.98818274  0.48709586  0.28060798  1
  I  I84  1  0.48915418  0.00730744  0.71916480  1
  I  I85  1  0.51089388  0.99259995  0.28081607  1
  I  I86  1  0.49618962  0.50277925  0.72015022  1
  I  I87  1  0.50394009  0.49700582  0.28064809  1
  N  N88  1  0.25510355  0.18513303  0.75403890  1
  N  N89  1  0.24967198  0.19471445  0.20371278  1
  N  N90  1  0.25077988  0.16631225  0.52682900  1
  N  N91  1  0.18859138  0.74804104  0.75731203  1
  N  N92  1  0.18993348  0.74558001  0.20787815  1
  N  N93  1  0.16694640  0.74914689  0.53042368  1
  N  N94  1  0.81141112  0.25198927  0.24262621  1
  N  N95  1  0.81004814  0.25450712  0.79206065  1
  N  N96  1  0.83305724  0.25080388  0.46953747  1
  N  N97  1  0.74493558  0.81488389  0.24592034  1
  N  N98  1  0.75038139  0.80526947  0.79625255  1
  N  N99  1  0.74929948  0.83370350  0.47315735  1
