# generated using pymatgen
data_H15PbC8I4N3
_symmetry_space_group_name_H-M   'P 1'
_cell_length_a   12.52015492
_cell_length_b   12.49244100
_cell_length_c   13.67620881
_cell_angle_alpha   90.38607263
_cell_angle_beta   90.48202387
_cell_angle_gamma   89.24880018
_symmetry_Int_Tables_number   1
_chemical_formula_structural   H15PbC8I4N3
_chemical_formula_sum   'H60 Pb4 C32 I16 N12'
_cell_volume   2138.75232216
_cell_formula_units_Z   4
loop_
 _symmetry_equiv_pos_site_id
 _symmetry_equiv_pos_as_xyz
  1  'x, y, z'
loop_
 _atom_site_type_symbol
 _atom_site_label
 _atom_site_symmetry_multiplicity
 _atom_site_fract_x
 _atom_site_fract_y
 _atom_site_fract_z
 _atom_site_occupancy
  H  H0  1  0.28218481  0.34413428  0.87243508  1
  H  H1  1  0.37299538  0.25580095  0.83420589  1
  H  H2  1  0.25069916  0.21513715  0.85749308  1
  H  H3  1  0.31826330  0.36272672  0.69823006  1
  H  H4  1  0.18260180  0.33680678  0.72353294  1
  H  H5  1  0.35037146  0.16185046  0.67252465  1
  H  H6  1  0.21303528  0.14062929  0.68763086  1
  H  H7  1  0.24429305  0.05216125  0.51620807  1
  H  H8  1  0.21466141  0.08960958  0.33848338  1
  H  H9  1  0.14669408  0.23485261  0.21874220  1
  H  H10  1  0.17987090  0.37087029  0.24275721  1
  H  H11  1  0.29351044  0.28495867  0.12218556  1
  H  H12  1  0.34310160  0.19702391  0.20420563  1
  H  H13  1  0.36420898  0.33013946  0.21745658  1
  H  H14  1  0.23212749  0.42638023  0.40830481  1
  H  H15  1  0.33797255  0.72168163  0.87854211  1
  H  H16  1  0.25476916  0.62924252  0.83711720  1
  H  H17  1  0.20864281  0.75168138  0.85931525  1
  H  H18  1  0.36260211  0.68218085  0.70422598  1
  H  H19  1  0.33290860  0.81878456  0.72893021  1
  H  H20  1  0.16493841  0.64928709  0.67280914  1
  H  H21  1  0.13810875  0.78674723  0.68926089  1
  H  H22  1  0.05364289  0.75478000  0.51766778  1
  H  H23  1  0.09161898  0.78349214  0.34042537  1
  H  H24  1  0.23805056  0.85389525  0.22318272  1
  H  H25  1  0.37233975  0.81226222  0.24547102  1
  H  H26  1  0.28584424  0.70235210  0.12558946  1
  H  H27  1  0.19141524  0.66189386  0.20442194  1
  H  H28  1  0.32163726  0.62859055  0.22133185  1
  H  H29  1  0.42743056  0.76802550  0.41279332  1
  H  H30  1  0.65473949  0.21679751  0.12697063  1
  H  H31  1  0.74051914  0.12273938  0.16307996  1
  H  H32  1  0.78402073  0.24468538  0.14100712  1
  H  H33  1  0.63760070  0.17839382  0.30130358  1
  H  H34  1  0.66369369  0.31410885  0.27607106  1
  H  H35  1  0.83908069  0.14630343  0.32596651  1
  H  H36  1  0.85921241  0.28420943  0.31149279  1
  H  H37  1  0.94787076  0.25359881  0.48292502  1
  H  H38  1  0.91022033  0.28215139  0.66068443  1
  H  H39  1  0.76479978  0.34942665  0.78008258  1
  H  H40  1  0.62976875  0.31460677  0.75657988  1
  H  H41  1  0.72115950  0.20259517  0.87697573  1
  H  H42  1  0.80362276  0.15060670  0.79218057  1
  H  H43  1  0.67078974  0.13077073  0.78442200  1
  H  H44  1  0.57440798  0.26376606  0.59013225  1
  H  H45  1  0.78652052  0.66484324  0.12165956  1
  H  H46  1  0.88123797  0.74271851  0.16863448  1
  H  H47  1  0.76145597  0.79502187  0.14214161  1
  H  H48  1  0.81953071  0.63689170  0.29797841  1
  H  H49  1  0.68477926  0.66837838  0.26727035  1
  H  H50  1  0.85154741  0.83667927  0.32772196  1
  H  H51  1  0.71417399  0.86117055  0.31094139  1
  H  H52  1  0.74491820  0.94612916  0.48239964  1
  H  H53  1  0.71804868  0.90787081  0.65950593  1
  H  H54  1  0.65096883  0.76160898  0.77752023  1
  H  H55  1  0.69201250  0.62681515  0.75570549  1
  H  H56  1  0.80280765  0.71633315  0.87463159  1
  H  H57  1  0.84353753  0.80778951  0.79281498  1
  H  H58  1  0.87488287  0.67572390  0.78004976  1
  H  H59  1  0.73590061  0.57125908  0.58779698  1
  Pb  Pb60  1  0.00230949  1.00059465  0.99916755  1
  Pb  Pb61  1  0.00121237  0.49214453  -0.00161730  1
  Pb  Pb62  1  0.49399306  0.99672516  0.99804492  1
  Pb  Pb63  1  0.50836200  0.49973005  0.01002498  1
  C  C64  1  0.26330889  0.30141903  0.72339043  1
  C  C65  1  0.27086445  0.19991683  0.66215532  1
  C  C66  1  0.25291708  0.22044638  0.55461698  1
  C  C67  1  0.24142785  0.13415554  0.48937682  1
  C  C68  1  0.22585040  0.15499951  0.39068599  1
  C  C69  1  0.22280014  0.26149476  0.35893434  1
  C  C70  1  0.20622510  0.28741693  0.25281464  1
  C  C71  1  0.23492684  0.34207818  0.42950956  1
  C  C72  1  0.29957399  0.73799599  0.72787870  1
  C  C73  1  0.20004301  0.72940421  0.66436529  1
  C  C74  1  0.22154256  0.74736685  0.55737293  1
  C  C75  1  0.13556628  0.75804305  0.49152230  1
  C  C76  1  0.15664980  0.77311770  0.39321216  1
  C  C77  1  0.26303838  0.77631553  0.36228508  1
  C  C78  1  0.28855444  0.79106802  0.25631660  1
  C  C79  1  0.34324065  0.76519463  0.43338565  1
  C  C80  1  0.69885456  0.23315150  0.27573760  1
  C  C81  1  0.80052100  0.22561993  0.33666180  1
  C  C82  1  0.78002452  0.24323292  0.44431228  1
  C  C83  1  0.86608779  0.25538256  0.50967099  1
  C  C84  1  0.84509250  0.27054486  0.60834175  1
  C  C85  1  0.73886592  0.27305852  0.63997866  1
  C  C86  1  0.71313654  0.28899658  0.74608939  1
  C  C87  1  0.65857794  0.26080117  0.56922234  1
  C  C88  1  0.76576418  0.70068302  0.27197108  1
  C  C89  1  0.77226745  0.79999129  0.33611640  1
  C  C90  1  0.75455551  0.77792674  0.44296970  1
  C  C91  1  0.74301414  0.86392485  0.50864102  1
  C  C92  1  0.72871014  0.84268260  0.60694952  1
  C  C93  1  0.72681077  0.73601198  0.63804832  1
  C  C94  1  0.71316210  0.71073538  0.74419449  1
  C  C95  1  0.73829246  0.65570294  0.56708878  1
  I  I96  1  0.24319230  0.06771820  0.98690869  1
  I  I97  1  0.25370179  0.47235874  0.00796937  1
  I  I98  1  0.74347663  0.95498635  0.02695293  1
  I  I99  1  0.75257447  0.54344930  0.98444980  1
  I  I100  1  0.92668071  0.25114885  0.00289314  1
  I  I101  1  0.04750036  0.75073748  0.98444740  1
  I  I102  1  0.53329046  0.24959448  0.98495552  1
  I  I103  1  0.46230119  0.74927141  0.02096549  1
  I  I104  1  0.94454952  0.99437092  0.76391461  1
  I  I105  1  0.00810098  0.98981462  0.22896799  1
  I  I106  1  0.99548494  0.50386272  0.76452413  1
  I  I107  1  0.02214885  0.54395952  0.23089331  1
  I  I108  1  0.51522907  0.00752031  0.76255367  1
  I  I109  1  0.47257812  0.03424177  0.22816629  1
  I  I110  1  0.48512769  0.50220217  0.78133072  1
  I  I111  1  0.47787948  0.49396706  0.25005823  1
  N  N112  1  0.29339786  0.27750847  0.82704014  1
  N  N113  1  0.30802865  0.27292608  0.19576457  1
  N  N114  1  0.24928138  0.32283972  0.52514093  1
  N  N115  1  0.27347668  0.70917808  0.83114176  1
  N  N116  1  0.26939033  0.68983528  0.19860799  1
  N  N117  1  0.32380033  0.75149407  0.52880148  1
  N  N118  1  0.72125305  0.20316662  0.17173802  1
  N  N119  1  0.72917813  0.18718885  0.80310303  1
  N  N120  1  0.67792501  0.24617979  0.47370836  1
  N  N121  1  0.80031023  0.72775304  0.17067404  1
  N  N122  1  0.81501515  0.73021993  0.80108551  1
  N  N123  1  0.75174443  0.67532767  0.47167909  1
