# generated using pymatgen
data_H15PbC9I4N2F
_symmetry_space_group_name_H-M   'P 1'
_cell_length_a   12.31477457
_cell_length_b   12.18725317
_cell_length_c   14.10958211
_cell_angle_alpha   88.93647087
_cell_angle_beta   88.67816882
_cell_angle_gamma   88.93284461
_symmetry_Int_Tables_number   1
_chemical_formula_structural   H15PbC9I4N2F
_chemical_formula_sum   'H60 Pb4 C36 I16 N8 F4'
_cell_volume   2116.33332637
_cell_formula_units_Z   4
loop_
 _symmetry_equiv_pos_site_id
 _symmetry_equiv_pos_as_xyz
  1  'x, y, z'
loop_
 _atom_site_type_symbol
 _atom_site_label
 _atom_site_symmetry_multiplicity
 _atom_site_fract_x
 _atom_site_fract_y
 _atom_site_fract_z
 _atom_site_occupancy
  H  H0  1  0.17319017  0.22712886  0.84639758  1
  H  H1  1  0.18506190  0.36106064  0.82690276  1
  H  H2  1  0.28969573  0.28532211  0.87274666  1
  H  H3  1  0.32735340  0.33270892  0.70743028  1
  H  H4  1  0.31461019  0.18816384  0.72526752  1
  H  H5  1  0.11988691  0.19981018  0.68050805  1
  H  H6  1  0.12735110  0.34486428  0.66802504  1
  H  H7  1  0.20213277  0.07918415  0.55831421  1
  H  H8  1  0.25251018  0.06088798  0.38764461  1
  H  H9  1  0.37983344  0.26013612  0.24568492  1
  H  H10  1  0.30277604  0.13874913  0.23769767  1
  H  H11  1  0.14870676  0.25050107  0.18926586  1
  H  H12  1  0.25845013  0.28139234  0.12330375  1
  H  H13  1  0.21323907  0.36620642  0.20858808  1
  H  H14  1  0.21459172  0.43245977  0.52692117  1
  H  H15  1  0.22988206  0.83053859  0.84453580  1
  H  H16  1  0.36249333  0.80908413  0.82962280  1
  H  H17  1  0.28353984  0.70867400  0.87557923  1
  H  H18  1  0.33595720  0.67172184  0.71142372  1
  H  H19  1  0.19270715  0.68865597  0.72807571  1
  H  H20  1  0.20479344  0.88647516  0.67756522  1
  H  H21  1  0.34809055  0.87290132  0.66396943  1
  H  H22  1  0.08326364  0.80300645  0.56065439  1
  H  H23  1  0.06405754  0.75095517  0.39216958  1
  H  H24  1  0.26412322  0.61774817  0.25234274  1
  H  H25  1  0.14234896  0.69736426  0.24226413  1
  H  H26  1  0.24623971  0.85190237  0.19017831  1
  H  H27  1  0.28587199  0.74245682  0.12761903  1
  H  H28  1  0.36476364  0.78853997  0.21264137  1
  H  H29  1  0.43282550  0.78015144  0.52608868  1
  H  H30  1  0.77886514  0.32224926  0.15317043  1
  H  H31  1  0.64561085  0.31516032  0.17112093  1
  H  H32  1  0.71792939  0.20628636  0.12643182  1
  H  H33  1  0.66873360  0.17020726  0.29089281  1
  H  H34  1  0.81220416  0.18207539  0.27537754  1
  H  H35  1  0.79857811  0.38090068  0.31973919  1
  H  H36  1  0.65550356  0.37112188  0.33230912  1
  H  H37  1  0.91889615  0.29670138  0.44071777  1
  H  H38  1  0.93635520  0.24402227  0.61106750  1
  H  H39  1  0.73997866  0.11330575  0.75164073  1
  H  H40  1  0.85824381  0.19300734  0.76153866  1
  H  H41  1  0.74351637  0.34661635  0.81040327  1
  H  H42  1  0.71371120  0.23386786  0.87426105  1
  H  H43  1  0.63108879  0.27991073  0.78751588  1
  H  H44  1  0.56926806  0.28285576  0.47264967  1
  H  H45  1  0.67396610  0.76768232  0.15749518  1
  H  H46  1  0.69715211  0.63463662  0.17075118  1
  H  H47  1  0.79552621  0.71600042  0.12524892  1
  H  H48  1  0.83201074  0.66242571  0.28973898  1
  H  H49  1  0.81359146  0.80716703  0.27389122  1
  H  H50  1  0.61775400  0.79271728  0.32346688  1
  H  H51  1  0.63170564  0.64841313  0.33573214  1
  H  H52  1  0.70159883  0.91591598  0.43987357  1
  H  H53  1  0.75419922  0.93582636  0.60767835  1
  H  H54  1  0.88294502  0.73400546  0.74838652  1
  H  H55  1  0.80577395  0.85833858  0.75729142  1
  H  H56  1  0.65117002  0.75815759  0.80882959  1
  H  H57  1  0.75847112  0.71759580  0.87361849  1
  H  H58  1  0.71260701  0.63587865  0.78956463  1
  H  H59  1  0.71825990  0.56277729  0.47563865  1
  Pb  Pb60  1  0.00935783  0.99303063  0.00893871  1
  Pb  Pb61  1  0.00649160  0.50525668  0.00555759  1
  Pb  Pb62  1  0.51629142  0.99604196  0.00205344  1
  Pb  Pb63  1  0.49968447  0.49018488  0.98491867  1
  C  C64  1  0.26989762  0.26696540  0.72463019  1
  C  C65  1  0.17348882  0.26749649  0.65824551  1
  C  C66  1  0.20623376  0.25606600  0.55551470  1
  C  C67  1  0.21742853  0.15237602  0.51463305  1
  C  C68  1  0.24522439  0.14201064  0.41883400  1
  C  C69  1  0.26365488  0.23489177  0.36089740  1
  C  C70  1  0.29928957  0.22478736  0.25899200  1
  C  C71  1  0.25220147  0.33698851  0.40392419  1
  C  C72  1  0.22387490  0.35001848  0.49861216  1
  C  C73  1  0.27037166  0.73164811  0.72651652  1
  C  C74  1  0.27125162  0.82930701  0.65702062  1
  C  C75  1  0.25857067  0.79513004  0.55592768  1
  C  C76  1  0.15549384  0.78552561  0.51683453  1
  C  C77  1  0.14441982  0.75629853  0.42243252  1
  C  C78  1  0.23591806  0.73411747  0.36454796  1
  C  C79  1  0.22727349  0.69937024  0.26362939  1
  C  C80  1  0.33704487  0.74249943  0.40619503  1
  C  C81  1  0.35103573  0.77299340  0.49904128  1
  C  C82  1  0.73451644  0.22785006  0.27484696  1
  C  C83  1  0.73252420  0.32541812  0.34153529  1
  C  C84  1  0.74381792  0.29217861  0.44401354  1
  C  C85  1  0.84644513  0.28101727  0.48448140  1
  C  C86  1  0.85627928  0.25203848  0.58000465  1
  C  C87  1  0.76433496  0.23214462  0.63766771  1
  C  C88  1  0.77352283  0.19548734  0.73919060  1
  C  C89  1  0.66332671  0.24352450  0.59506856  1
  C  C90  1  0.65074758  0.27348043  0.50079887  1
  C  C91  1  0.77211191  0.72807751  0.27489078  1
  C  C92  1  0.67464217  0.72602896  0.34369376  1
  C  C93  1  0.70680602  0.73869132  0.44510897  1
  C  C94  1  0.71782138  0.84304979  0.48380703  1
  C  C95  1  0.74726407  0.85433194  0.57795306  1
  C  C96  1  0.76778446  0.76210683  0.63616839  1
  C  C97  1  0.80263661  0.77213302  0.73683050  1
  C  C98  1  0.75709766  0.65948344  0.59517090  1
  C  C99  1  0.72670769  0.64555531  0.50231624  1
  I  I100  1  0.26062565  0.96431720  0.00389720  1
  I  I101  1  0.25203679  0.57316760  0.01466035  1
  I  I102  1  0.75713792  0.07780565  0.99350592  1
  I  I103  1  0.75414820  0.46155637  0.98218683  1
  I  I104  1  0.03777544  0.24941893  0.00727858  1
  I  I105  1  0.91860453  0.75255464  0.98991355  1
  I  I106  1  0.42510299  0.24564588  -0.00047809  1
  I  I107  1  0.53383259  0.74235103  0.01058596  1
  I  I108  1  0.03078307  0.99889926  0.77788429  1
  I  I109  1  0.02515791  0.98495080  0.23370432  1
  I  I110  1  0.03023347  0.51151152  0.78061273  1
  I  I111  1  0.99202401  0.48158234  0.23428389  1
  I  I112  1  0.53350097  0.95330550  0.77564491  1
  I  I113  1  0.51539990  0.98504118  0.22905282  1
  I  I114  1  0.50969579  0.49970471  0.75906812  1
  I  I115  1  0.50970994  0.47863073  0.21166754  1
  N  N116  1  0.22769690  0.28628024  0.82350123  1
  N  N117  1  0.22480081  0.28465366  0.19147934  1
  N  N118  1  0.28757153  0.77182318  0.82477881  1
  N  N119  1  0.28495941  0.77587650  0.19493212  1
  N  N120  1  0.71815927  0.26963739  0.17544696  1
  N  N121  1  0.71124719  0.26924348  0.80632579  1
  N  N122  1  0.73299099  0.71033790  0.17673515  1
  N  N123  1  0.72572747  0.71669620  0.80631410  1
  F  F124  1  0.26873863  0.42954301  0.34856100  1
  F  F125  1  0.42762812  0.72014471  0.35061745  1
  F  F126  1  0.57183487  0.22497547  0.65035511  1
  F  F127  1  0.77687684  0.56771554  0.65056922  1
