# generated using pymatgen
data_H16PbC9(I2N)2
_symmetry_space_group_name_H-M   'P 1'
_cell_length_a   12.82997160
_cell_length_b   12.30620856
_cell_length_c   13.20159173
_cell_angle_alpha   87.45765719
_cell_angle_beta   89.00716545
_cell_angle_gamma   90.76678570
_symmetry_Int_Tables_number   1
_chemical_formula_structural   H16PbC9(I2N)2
_chemical_formula_sum   'H64 Pb4 C36 I16 N8'
_cell_volume   2081.80376391
_cell_formula_units_Z   4
loop_
 _symmetry_equiv_pos_site_id
 _symmetry_equiv_pos_as_xyz
  1  'x, y, z'
loop_
 _atom_site_type_symbol
 _atom_site_label
 _atom_site_symmetry_multiplicity
 _atom_site_fract_x
 _atom_site_fract_y
 _atom_site_fract_z
 _atom_site_occupancy
  H  H0  1  0.34714129  0.22627519  0.75442979  1
  H  H1  1  0.35042274  0.36309385  0.75593850  1
  H  H2  1  0.31909392  0.28676851  0.85998742  1
  H  H3  1  0.15784400  0.35228441  0.80627065  1
  H  H4  1  0.16321900  0.21501314  0.77079097  1
  H  H5  1  0.09675147  0.35412469  0.63932082  1
  H  H6  1  0.21737046  0.42026131  0.63538109  1
  H  H7  1  0.18071904  0.11280774  0.64027655  1
  H  H8  1  0.22870982  0.00302765  0.49535476  1
  H  H9  1  0.29038631  0.09200248  0.33229606  1
  H  H10  1  0.33001758  0.39554604  0.29500053  1
  H  H11  1  0.37591627  0.26989138  0.25294325  1
  H  H12  1  0.15838974  0.35038538  0.23047967  1
  H  H13  1  0.20289670  0.23094759  0.19037377  1
  H  H14  1  0.25219152  0.34732194  0.14091463  1
  H  H15  1  0.25391258  0.40618039  0.46052929  1
  H  H16  1  0.22368687  0.65234025  0.73946265  1
  H  H17  1  0.35346695  0.63878753  0.75428975  1
  H  H18  1  0.27550031  0.66739492  0.85180511  1
  H  H19  1  0.36395060  0.83152554  0.80319833  1
  H  H20  1  0.23278020  0.84442645  0.76461978  1
  H  H21  1  0.36398965  0.91086993  0.63249729  1
  H  H22  1  0.42338514  0.78347975  0.63334465  1
  H  H23  1  0.13129949  0.82740296  0.63642053  1
  H  H24  1  0.01871764  0.77834243  0.49571586  1
  H  H25  1  0.09668975  0.71084617  0.33630825  1
  H  H26  1  0.37521614  0.63815257  0.31144249  1
  H  H27  1  0.24860307  0.61750876  0.26293359  1
  H  H28  1  0.38037553  0.81928371  0.23124947  1
  H  H29  1  0.26128407  0.80477079  0.18628183  1
  H  H30  1  0.35514322  0.72238625  0.14836834  1
  H  H31  1  0.40293697  0.74363686  0.46087256  1
  H  H32  1  0.78098966  0.14231648  0.26290048  1
  H  H33  1  0.65314822  0.12202026  0.24431611  1
  H  H34  1  0.73130271  0.16152486  0.14831420  1
  H  H35  1  0.63433798  0.31606140  0.18931496  1
  H  H36  1  0.76478676  0.33761721  0.22482779  1
  H  H37  1  0.63413694  0.39276148  0.35413521  1
  H  H38  1  0.57899467  0.26179595  0.36377607  1
  H  H39  1  0.86962508  0.31772828  0.35128870  1
  H  H40  1  0.98675642  0.26437025  0.48916026  1
  H  H41  1  0.91418980  0.19137149  0.65598719  1
  H  H42  1  0.63550084  0.12346027  0.70252571  1
  H  H43  1  0.76488858  0.10566622  0.74643743  1
  H  H44  1  0.63707316  0.30503531  0.76350036  1
  H  H45  1  0.76090052  0.29598315  0.79746673  1
  H  H46  1  0.67429544  0.21311000  0.85558463  1
  H  H47  1  0.60315888  0.22691925  0.54202215  1
  H  H48  1  0.85859877  0.78722031  0.27103333  1
  H  H49  1  0.87518553  0.64995587  0.26409775  1
  H  H50  1  0.85232822  0.72797583  0.16037697  1
  H  H51  1  0.69421767  0.63862427  0.19550688  1
  H  H52  1  0.68006533  0.77542901  0.22866002  1
  H  H53  1  0.60292292  0.64379735  0.35860659  1
  H  H54  1  0.72138874  0.57579369  0.37150992  1
  H  H55  1  0.68405854  0.88203580  0.36034814  1
  H  H56  1  0.73834560  0.99797295  0.49795078  1
  H  H57  1  0.80484053  0.91431393  0.65965404  1
  H  H58  1  0.84944858  0.61538141  0.69795745  1
  H  H59  1  0.88429636  0.74465433  0.74198085  1
  H  H60  1  0.67259192  0.64190550  0.76445584  1
  H  H61  1  0.70927993  0.75931936  0.81243460  1
  H  H62  1  0.76356413  0.64442248  0.85378493  1
  H  H63  1  0.76036132  0.59579203  0.54245261  1
  Pb  Pb64  1  0.00013652  0.99760248  0.01570180  1
  Pb  Pb65  1  0.00737916  0.51087306  0.00887048  1
  Pb  Pb66  1  0.48400516  0.00728380  0.00466975  1
  Pb  Pb67  1  0.51122510  0.49988724  0.97173268  1
  C  C68  1  0.19607327  0.29700077  0.75483629  1
  C  C69  1  0.18087593  0.33880530  0.64601341  1
  C  C70  1  0.21546134  0.26786350  0.56146794  1
  C  C71  1  0.20860341  0.15401524  0.56980836  1
  C  C72  1  0.23487291  0.09143821  0.48765903  1
  C  C73  1  0.26809534  0.14133535  0.39574957  1
  C  C74  1  0.27408788  0.25513429  0.38564335  1
  C  C75  1  0.30865741  0.30991782  0.28683579  1
  C  C76  1  0.24862855  0.31739002  0.46852787  1
  C  C77  1  0.30640897  0.80297079  0.74968625  1
  C  C78  1  0.34722185  0.82283284  0.64155935  1
  C  C79  1  0.27575690  0.78905916  0.55863203  1
  C  C80  1  0.16706127  0.79785637  0.56737596  1
  C  C81  1  0.10298123  0.77113757  0.48753743  1
  C  C82  1  0.14634724  0.73477669  0.39794760  1
  C  C83  1  0.25452233  0.72451754  0.38820508  1
  C  C84  1  0.30105482  0.67775607  0.29512567  1
  C  C85  1  0.31840322  0.75174579  0.46841174  1
  C  C86  1  0.69365274  0.28993729  0.24374610  1
  C  C87  1  0.65375272  0.30591620  0.35141645  1
  C  C88  1  0.72733224  0.27535420  0.43598656  1
  C  C89  1  0.83570825  0.28616164  0.42318675  1
  C  C90  1  0.90272593  0.25754409  0.50182504  1
  C  C91  1  0.86247992  0.21820083  0.59517148  1
  C  C92  1  0.75434023  0.20847577  0.60997669  1
  C  C93  1  0.71166193  0.16371891  0.70969102  1
  C  C94  1  0.68744705  0.23660417  0.53051866  1
  C  C95  1  0.71776060  0.69840666  0.25022988  1
  C  C96  1  0.68802829  0.65708045  0.35740522  1
  C  C97  1  0.71867853  0.73020953  0.44122474  1
  C  C98  1  0.71200081  0.84375540  0.43063096  1
  C  C99  1  0.74149707  0.90972436  0.50891185  1
  C  C100  1  0.77748454  0.86318799  0.59964721  1
  C  C101  1  0.78272815  0.74967896  0.61220743  1
  C  C102  1  0.82109682  0.69765586  0.70887342  1
  C  C103  1  0.75410334  0.68421711  0.53294899  1
  I  I104  1  0.23008947  0.99470287  0.08891979  1
  I  I105  1  0.24912367  0.56172760  0.02174428  1
  I  I106  1  0.72346474  0.05821707  0.98333334  1
  I  I107  1  0.74716751  0.44641119  0.96863310  1
  I  I108  1  1.01232338  0.25386392  0.02511303  1
  I  I109  1  0.91052105  0.75090874  0.98874141  1
  I  I110  1  0.42874990  0.25833460  0.02368675  1
  I  I111  1  0.52832589  0.75957551  0.94840797  1
  I  I112  1  0.02563582  0.99484856  0.77803742  1
  I  I113  1  0.92659580  0.98545509  0.25862846  1
  I  I114  1  0.04280679  0.54322416  0.77360675  1
  I  I115  1  0.01270896  0.49303179  0.26215893  1
  I  I116  1  0.44724134  0.06127075  0.76891997  1
  I  I117  1  0.50648472  0.97897166  0.25246705  1
  I  I118  1  0.51056118  0.49793898  0.70937529  1
  I  I119  1  0.50698830  0.51644527  0.19898506  1
  N  N120  1  0.30876785  0.29404676  0.78201591  1
  N  N121  1  0.22483622  0.30892060  0.20778214  1
  N  N122  1  0.28888836  0.68381744  0.77445460  1
  N  N123  1  0.32551755  0.76086996  0.21061056  1
  N  N124  1  0.71661198  0.17344074  0.22500248  1
  N  N125  1  0.69445074  0.25075403  0.78524290  1
  N  N126  1  0.83252155  0.71647426  0.23777337  1
  N  N127  1  0.73628654  0.68570054  0.78929666  1
