# generated using pymatgen
data_H14PbC8(I2N)2
_symmetry_space_group_name_H-M   'P 1'
_cell_length_a   12.69119155
_cell_length_b   12.67409639
_cell_length_c   12.34890443
_cell_angle_alpha   90.00336870
_cell_angle_beta   89.99647943
_cell_angle_gamma   89.42192805
_symmetry_Int_Tables_number   1
_chemical_formula_structural   H14PbC8(I2N)2
_chemical_formula_sum   'H56 Pb4 C32 I16 N8'
_cell_volume   1986.21258084
_cell_formula_units_Z   4
loop_
 _symmetry_equiv_pos_site_id
 _symmetry_equiv_pos_as_xyz
  1  'x, y, z'
loop_
 _atom_site_type_symbol
 _atom_site_label
 _atom_site_symmetry_multiplicity
 _atom_site_fract_x
 _atom_site_fract_y
 _atom_site_fract_z
 _atom_site_occupancy
  H  H0  1  0.26818791  0.18336001  0.83868534  1
  H  H1  1  0.26365534  0.31581456  0.84214959  1
  H  H2  1  0.15410848  0.24684575  0.85922566  1
  H  H3  1  0.15729869  0.18046287  0.67857878  1
  H  H4  1  0.15597318  0.32165518  0.68048492  1
  H  H5  1  0.35355120  0.32153944  0.65595911  1
  H  H6  1  0.35497495  0.18098500  0.65580915  1
  H  H7  1  0.28402363  0.42112721  0.49891959  1
  H  H8  1  0.24556501  0.42047477  0.30152965  1
  H  H9  1  0.25260090  0.18259764  0.13888643  1
  H  H10  1  0.14011117  0.24680399  0.16121224  1
  H  H11  1  0.24833508  0.31580627  0.13708052  1
  H  H12  1  0.24577899  0.07994878  0.30382113  1
  H  H13  1  0.28445959  0.08078187  0.50116408  1
  H  H14  1  0.18407633  0.73753649  0.84181085  1
  H  H15  1  0.31636141  0.73277497  0.83835518  1
  H  H16  1  0.25318385  0.84714353  0.85794064  1
  H  H17  1  0.17845993  0.84464473  0.67969799  1
  H  H18  1  0.31918024  0.84339290  0.67783033  1
  H  H19  1  0.31874112  0.64510387  0.65550383  1
  H  H20  1  0.17866433  0.64646873  0.65557375  1
  H  H21  1  0.41898997  0.71595515  0.50109701  1
  H  H22  1  0.41996670  0.75365057  0.30328507  1
  H  H23  1  0.18462318  0.74850801  0.13655277  1
  H  H24  1  0.25341279  0.85722486  0.15815232  1
  H  H25  1  0.31754996  0.74415425  0.13843903  1
  H  H26  1  0.08012352  0.75392867  0.30068980  1
  H  H27  1  0.07922815  0.71652164  0.49868962  1
  H  H28  1  0.81636337  0.23276536  0.16164100  1
  H  H29  1  0.68408023  0.23754903  0.15818634  1
  H  H30  1  0.75321043  0.34714321  0.14206759  1
  H  H31  1  0.81918029  0.34339335  0.32217240  1
  H  H32  1  0.67846011  0.34465202  0.32031460  1
  H  H33  1  0.67865267  0.14647693  0.34442283  1
  H  H34  1  0.81872879  0.14510434  0.34447775  1
  H  H35  1  0.57919958  0.21652397  0.50129907  1
  H  H36  1  0.58008490  0.25392573  0.69930337  1
  H  H37  1  0.81751795  0.24419948  0.86153837  1
  H  H38  1  0.75331409  0.35722801  0.84186056  1
  H  H39  1  0.68459143  0.24846613  0.86347469  1
  H  H40  1  0.91992781  0.25363999  0.69673220  1
  H  H41  1  0.91896186  0.21594595  0.49891268  1
  H  H42  1  0.76366028  0.81580586  0.15784700  1
  H  H43  1  0.76817822  0.68335354  0.16129637  1
  H  H44  1  0.65410566  0.74685005  0.14078051  1
  H  H45  1  0.65597947  0.82166087  0.31952815  1
  H  H46  1  0.65729264  0.68046957  0.32142070  1
  H  H47  1  0.85497068  0.68097737  0.34416698  1
  H  H48  1  0.85355675  0.82152980  0.34403498  1
  H  H49  1  0.78446919  0.58077293  0.49881345  1
  H  H50  1  0.74578069  0.57994408  0.69616643  1
  H  H51  1  0.74827367  0.81582045  0.86292390  1
  H  H52  1  0.64009609  0.74674506  0.83879120  1
  H  H53  1  0.75262091  0.68261582  0.86111043  1
  H  H54  1  0.74556093  0.92047420  0.69849091  1
  H  H55  1  0.78402585  0.92112193  0.50109218  1
  Pb  Pb56  1  0.99527071  -0.00120179  0.99715933  1
  Pb  Pb57  1  1.00101540  0.50472657  0.99914361  1
  Pb  Pb58  1  0.50101296  0.00471660  0.00085317  1
  Pb  Pb59  1  0.49526343  0.49878781  0.00283909  1
  C  C60  1  0.20425309  0.25081882  0.69614812  1
  C  C61  1  0.30786740  0.25130659  0.63362814  1
  C  C62  1  0.28633612  0.25106811  0.51346504  1
  C  C63  1  0.27505546  0.34621454  0.45660390  1
  C  C64  1  0.25382732  0.34651477  0.34583782  1
  C  C65  1  0.24391331  0.25002934  0.29352391  1
  C  C66  1  0.25401015  0.15417280  0.34729959  1
  C  C67  1  0.27525349  0.15535274  0.45794427  1
  C  C68  1  0.24907902  0.79620792  0.69540964  1
  C  C69  1  0.24865264  0.69238417  0.63325549  1
  C  C70  1  0.24898758  0.71391728  0.51314763  1
  C  C71  1  0.34458704  0.72492237  0.45763806  1
  C  C72  1  0.34589140  0.74561853  0.34685967  1
  C  C73  1  0.25020999  0.75523720  0.29286026  1
  C  C74  1  0.15384863  0.74581991  0.34530697  1
  C  C75  1  0.15397968  0.72517667  0.45617900  1
  C  C76  1  0.74907859  0.29621200  0.30459476  1
  C  C77  1  0.74864684  0.19238811  0.36673926  1
  C  C78  1  0.74896357  0.21391994  0.48685141  1
  C  C79  1  0.65397099  0.22517995  0.54382009  1
  C  C80  1  0.65378617  0.24582180  0.65470923  1
  C  C81  1  0.75017175  0.25523333  0.70714238  1
  C  C82  1  0.84582420  0.24560849  0.65313108  1
  C  C83  1  0.84457498  0.22491819  0.54236320  1
  C  C84  1  0.70425369  0.75081970  0.30385415  1
  C  C85  1  0.80786791  0.75130205  0.36636176  1
  C  C86  1  0.78633734  0.75105643  0.48652284  1
  C  C87  1  0.77525625  0.65535235  0.54204547  1
  C  C88  1  0.75401085  0.65416601  0.65268342  1
  C  C89  1  0.74390687  0.75003507  0.70648254  1
  C  C90  1  0.75382505  0.84650507  0.65416979  1
  C  C91  1  0.77505547  0.84621166  0.54340397  1
  I  I92  1  0.25007936  0.01483326  0.01004438  1
  I  I93  1  0.25025522  0.47151622  0.00658379  1
  I  I94  1  0.75025779  0.97150976  0.99343644  1
  I  I95  1  0.75007638  0.51481947  0.98996781  1
  I  I96  1  0.98584982  0.25001392  0.99347707  1
  I  I97  1  0.02889467  0.74979582  0.00440838  1
  I  I98  1  0.52889588  0.24978154  0.99561665  1
  I  I99  1  0.48584574  0.75000508  0.00650141  1
  I  I100  1  0.01630049  0.00162664  0.74345114  1
  I  I101  1  0.99343135  0.00900824  0.25425714  1
  I  I102  1  0.00736301  0.49908385  0.74408746  1
  I  I103  1  0.98387982  0.49316516  0.25512665  1
  I  I104  1  0.48388591  0.99317452  0.74487630  1
  I  I105  1  0.50735754  0.99906622  0.25591315  1
  I  I106  1  0.49341360  0.50901715  0.74574053  1
  I  I107  1  0.51627037  0.50163275  0.25653283  1
  N  N108  1  0.22452012  0.24904643  0.81626024  1
  N  N109  1  0.22047342  0.24877587  0.17673866  1
  N  N110  1  0.25082744  0.77651059  0.81568570  1
  N  N111  1  0.25150859  0.77692779  0.17575991  1
  N  N112  1  0.75083780  0.27651174  0.18431411  1
  N  N113  1  0.75148662  0.27692001  0.82424971  1
  N  N114  1  0.72452284  0.74904411  0.18373727  1
  N  N115  1  0.72045549  0.74876129  0.82326419  1
