# generated using pymatgen
data_H18PbC10(I2N)2
_symmetry_space_group_name_H-M   'P 1'
_cell_length_a   12.54697672
_cell_length_b   12.45154799
_cell_length_c   14.31885855
_cell_angle_alpha   88.89513828
_cell_angle_beta   89.14957381
_cell_angle_gamma   90.18777553
_symmetry_Int_Tables_number   1
_chemical_formula_structural   H18PbC10(I2N)2
_chemical_formula_sum   'H72 Pb4 C40 I16 N8'
_cell_volume   2236.34852053
_cell_formula_units_Z   4
loop_
 _symmetry_equiv_pos_site_id
 _symmetry_equiv_pos_as_xyz
  1  'x, y, z'
loop_
 _atom_site_type_symbol
 _atom_site_label
 _atom_site_symmetry_multiplicity
 _atom_site_fract_x
 _atom_site_fract_y
 _atom_site_fract_z
 _atom_site_occupancy
  H  H0  1  0.32955986  0.38746295  0.75619449  1
  H  H1  1  0.37905185  0.28891487  0.83508182  1
  H  H2  1  0.42102700  0.28966847  0.71605745  1
  H  H3  1  0.28667312  0.14429614  0.75441622  1
  H  H4  1  0.13019947  0.32057771  0.78740302  1
  H  H5  1  0.19044592  0.24776331  0.87087342  1
  H  H6  1  0.11156392  0.18573334  0.79486037  1
  H  H7  1  0.22950482  0.06337403  0.62069075  1
  H  H8  1  0.17624662  0.07166767  0.45502367  1
  H  H9  1  0.08456849  0.17914387  0.33430324  1
  H  H10  1  0.08920050  0.32155638  0.33504923  1
  H  H11  1  0.27743275  0.17732172  0.28033783  1
  H  H12  1  0.27710088  0.32083333  0.27826282  1
  H  H13  1  0.12585047  0.31484117  0.17315977  1
  H  H14  1  0.13365196  0.17940962  0.16977457  1
  H  H15  1  0.23274167  0.25655879  0.12534077  1
  H  H16  1  0.17094178  0.41710843  0.46378030  1
  H  H17  1  0.22247005  0.40936946  0.62940153  1
  H  H18  1  0.38728014  0.67282902  0.75903863  1
  H  H19  1  0.28972782  0.61960650  0.83811426  1
  H  H20  1  0.29156283  0.57995720  0.71942918  1
  H  H21  1  0.14581752  0.71358342  0.75595014  1
  H  H22  1  0.32441493  0.86769829  0.78860885  1
  H  H23  1  0.24322089  0.81022624  0.87018206  1
  H  H24  1  0.19160955  0.89262600  0.78956362  1
  H  H25  1  0.06509024  0.77565160  0.62156692  1
  H  H26  1  0.07348771  0.82999010  0.45365213  1
  H  H27  1  0.17971678  0.91831794  0.32968611  1
  H  H28  1  0.32084708  0.91719809  0.33215018  1
  H  H29  1  0.17920933  0.72447461  0.28287750  1
  H  H30  1  0.32149994  0.72436730  0.28427371  1
  H  H31  1  0.32477182  0.86645187  0.16942051  1
  H  H32  1  0.19010473  0.87274124  0.16775432  1
  H  H33  1  0.25242644  0.76459567  0.12769947  1
  H  H34  1  0.41649599  0.82881216  0.46218244  1
  H  H35  1  0.40823358  0.77510432  0.62883782  1
  H  H36  1  0.61394732  0.17128044  0.24313344  1
  H  H37  1  0.71242127  0.11926350  0.16627914  1
  H  H38  1  0.70917606  0.07877924  0.28578483  1
  H  H39  1  0.85568823  0.21174146  0.24826836  1
  H  H40  1  0.68493631  0.37319121  0.21308407  1
  H  H41  1  0.75130296  0.30851521  0.12905680  1
  H  H42  1  0.81903603  0.38656420  0.20140237  1
  H  H43  1  0.93331556  0.27295433  0.38108006  1
  H  H44  1  0.92483736  0.32674350  0.54681063  1
  H  H45  1  0.81581782  0.41939915  0.66603314  1
  H  H46  1  0.67491199  0.41279628  0.66468953  1
  H  H47  1  0.82056828  0.22248445  0.71598210  1
  H  H48  1  0.67840458  0.22236252  0.72119506  1
  H  H49  1  0.68951467  0.37318919  0.82957394  1
  H  H50  1  0.82337234  0.36095003  0.83021188  1
  H  H51  1  0.74587721  0.26183339  0.87330662  1
  H  H52  1  0.58198584  0.32884253  0.53500298  1
  H  H53  1  0.59069571  0.27556555  0.37012003  1
  H  H54  1  0.83231812  0.61534406  0.24343740  1
  H  H55  1  0.88205503  0.71450792  0.16354888  1
  H  H56  1  0.92150587  0.71479342  0.28240822  1
  H  H57  1  0.78288000  0.85662184  0.24424956  1
  H  H58  1  0.63736091  0.67071181  0.21238381  1
  H  H59  1  0.69417079  0.75018168  0.12916734  1
  H  H60  1  0.60873525  0.80357253  0.20594259  1
  H  H61  1  0.72447238  0.93463436  0.38047467  1
  H  H62  1  0.67068203  0.92374550  0.54786491  1
  H  H63  1  0.58225159  0.81292400  0.67082875  1
  H  H64  1  0.58735853  0.67046648  0.66845306  1
  H  H65  1  0.77483645  0.81927959  0.71582979  1
  H  H66  1  0.77889784  0.67587309  0.71641388  1
  H  H67  1  0.63900705  0.67038057  0.83261818  1
  H  H68  1  0.62951662  0.80560182  0.83201316  1
  H  H69  1  0.73874091  0.74694847  0.87221503  1
  H  H70  1  0.67165785  0.57835865  0.53600647  1
  H  H71  1  0.72461811  0.58874886  0.37012549  1
  Pb  Pb72  1  0.98781749  -0.00195875  0.99087868  1
  Pb  Pb73  1  0.00555553  0.51000676  0.99139285  1
  Pb  Pb74  1  0.49847552  0.00915590  0.99354424  1
  Pb  Pb75  1  0.49241542  0.49799344  0.02110447  1
  C  C76  1  0.35283619  0.30288195  0.76308420  1
  C  C77  1  0.26298323  0.22741790  0.73810272  1
  C  C78  1  0.23053160  0.23531607  0.63679722  1
  C  C79  1  0.21770436  0.14115372  0.58621269  1
  C  C80  1  0.18849186  0.14590892  0.49276045  1
  C  C81  1  0.17192337  0.24479387  0.44728138  1
  C  C82  1  0.13651746  0.24862121  0.34741049  1
  C  C83  1  0.22673864  0.24874763  0.27441082  1
  C  C84  1  0.18497270  0.33928085  0.49784274  1
  C  C85  1  0.21392850  0.33464702  0.59153271  1
  C  C86  1  0.30363373  0.64778536  0.76584058  1
  C  C87  1  0.22828168  0.73785611  0.73891611  1
  C  C88  1  0.23567734  0.77147860  0.63691635  1
  C  C89  1  0.14212403  0.78670995  0.58636754  1
  C  C90  1  0.14693722  0.81660058  0.49210354  1
  C  C91  1  0.24524353  0.83193396  0.44612289  1
  C  C92  1  0.24927004  0.86772198  0.34526379  1
  C  C93  1  0.25071578  0.77528138  0.27633518  1
  C  C94  1  0.33906346  0.81634425  0.49669201  1
  C  C95  1  0.33425312  0.78640145  0.59095099  1
  C  C96  1  0.69768708  0.14698205  0.23759689  1
  C  C97  1  0.77323484  0.23673208  0.26289774  1
  C  C98  1  0.76360927  0.27039092  0.36375639  1
  C  C99  1  0.85637527  0.28481264  0.41515192  1
  C  C100  1  0.85137516  0.31448733  0.50838650  1
  C  C101  1  0.75274872  0.33057577  0.55280666  1
  C  C102  1  0.74778206  0.36601490  0.65259914  1
  C  C103  1  0.74985590  0.27333706  0.72440482  1
  C  C104  1  0.65954634  0.31572962  0.50155501  1
  C  C105  1  0.66460846  0.28586050  0.40816255  1
  C  C106  1  0.85463743  0.70029158  0.23590611  1
  C  C107  1  0.76213128  0.77258212  0.26132391  1
  C  C108  1  0.72820680  0.76318198  0.36310789  1
  C  C109  1  0.71309116  0.85638640  0.41472680  1
  C  C110  1  0.68362602  0.85023815  0.50894032  1
  C  C111  1  0.66860333  0.75037787  0.55400149  1
  C  C112  1  0.63413110  0.74419725  0.65508750  1
  C  C113  1  0.72654566  0.74587171  0.72364998  1
  C  C114  1  0.68405243  0.65696057  0.50238852  1
  C  C115  1  0.71369892  0.66306797  0.40821507  1
  I  I116  1  0.25094672  0.05892368  0.99502367  1
  I  I117  1  0.25373175  0.42687005  0.99405464  1
  I  I118  1  0.74907124  0.92137364  0.00178870  1
  I  I119  1  0.75684572  0.55183047  0.01264644  1
  I  I120  1  0.94375240  0.24827618  0.99804036  1
  I  I121  1  0.08171150  0.75109804  0.99263775  1
  I  I122  1  0.57376220  0.24971140  0.00948381  1
  I  I123  1  0.44712310  0.74745263  0.99490830  1
  I  I124  1  0.01756455  0.00601530  0.76626643  1
  I  I125  1  0.00920093  -0.00082514  0.21461145  1
  I  I126  1  0.00524202  0.48680416  0.76722565  1
  I  I127  1  0.01447871  0.47430817  0.21284796  1
  I  I128  1  0.49546115  0.99056810  0.77085070  1
  I  I129  1  0.49055924  0.96320413  0.21629155  1
  I  I130  1  0.54395703  0.50022022  0.80197621  1
  I  I131  1  0.52005164  0.49822874  0.24431477  1
  N  N132  1  0.16753800  0.24734981  0.80174342  1
  N  N133  1  0.17769483  0.24908501  0.17950141  1
  N  N134  1  0.24919376  0.83348448  0.80036507  1
  N  N135  1  0.25425906  0.82179965  0.17891251  1
  N  N136  1  0.75567478  0.33263099  0.19770097  1
  N  N137  1  0.75288459  0.31914856  0.82047600  1
  N  N138  1  0.66955266  0.74684288  0.19852213  1
  N  N139  1  0.68154932  0.74238735  0.82128497  1
