# generated using pymatgen
data_H18PbC10(I2N)2
_symmetry_space_group_name_H-M   'P 1'
_cell_length_a   12.60679219
_cell_length_b   12.54975065
_cell_length_c   13.94096268
_cell_angle_alpha   87.72382398
_cell_angle_beta   88.22740952
_cell_angle_gamma   86.77221142
_symmetry_Int_Tables_number   1
_chemical_formula_structural   H18PbC10(I2N)2
_chemical_formula_sum   'H72 Pb4 C40 I16 N8'
_cell_volume   2199.48190670
_cell_formula_units_Z   4
loop_
 _symmetry_equiv_pos_site_id
 _symmetry_equiv_pos_as_xyz
  1  'x, y, z'
loop_
 _atom_site_type_symbol
 _atom_site_label
 _atom_site_symmetry_multiplicity
 _atom_site_fract_x
 _atom_site_fract_y
 _atom_site_fract_z
 _atom_site_occupancy
  H  H0  1  0.07756410  0.24276351  0.61610212  1
  H  H1  1  0.12881573  0.36263243  0.65307751  1
  H  H2  1  0.09108711  0.26326187  0.73976667  1
  H  H3  1  0.23725347  0.13830561  0.67996232  1
  H  H4  1  0.39765255  0.22824738  0.71964478  1
  H  H5  1  0.32828392  0.35628610  0.71280893  1
  H  H6  1  0.26893864  0.17766084  0.84906855  1
  H  H7  1  0.34470883  0.27519267  0.87538447  1
  H  H8  1  0.21849679  0.30421714  0.84721865  1
  H  H9  1  0.28577314  0.06364545  0.53896343  1
  H  H10  1  0.33742037  0.07507178  0.36587060  1
  H  H11  1  0.41609167  0.18258325  0.23324082  1
  H  H12  1  0.41313130  0.32545791  0.23660093  1
  H  H13  1  0.21695269  0.32304281  0.21099300  1
  H  H14  1  0.29682038  0.27634231  0.12149616  1
  H  H15  1  0.23421443  0.19170981  0.19436037  1
  H  H16  1  0.33596635  0.41804266  0.37787574  1
  H  H17  1  0.28234489  0.40671543  0.54938021  1
  H  H18  1  0.25273081  0.92718211  0.61371328  1
  H  H19  1  0.36966537  0.85321542  0.65166630  1
  H  H20  1  0.27239037  0.90063753  0.73668594  1
  H  H21  1  0.13998437  0.78252806  0.67520374  1
  H  H22  1  0.22159143  0.60246857  0.72033491  1
  H  H23  1  0.34983774  0.65702088  0.72224215  1
  H  H24  1  0.16308847  0.73912393  0.83979594  1
  H  H25  1  0.24826403  0.64181856  0.87820420  1
  H  H26  1  0.29188437  0.76231434  0.85264883  1
  H  H27  1  0.06146420  0.72375622  0.54389619  1
  H  H28  1  0.06973805  0.66935440  0.37456169  1
  H  H29  1  0.17316355  0.59812891  0.23975147  1
  H  H30  1  0.31476325  0.58230357  0.24332507  1
  H  H31  1  0.32330440  0.77379199  0.20634354  1
  H  H32  1  0.26673303  0.70864450  0.12187101  1
  H  H33  1  0.19117527  0.78571288  0.19595579  1
  H  H34  1  0.41170192  0.66217185  0.37576139  1
  H  H35  1  0.40396259  0.71614275  0.54469375  1
  H  H36  1  0.75049855  0.42576125  0.37696357  1
  H  H37  1  0.63358196  0.36914636  0.33933121  1
  H  H38  1  0.73220988  0.40840680  0.25361930  1
  H  H39  1  0.86082377  0.26808638  0.31886085  1
  H  H40  1  0.77994786  0.10203295  0.28035998  1
  H  H41  1  0.64926586  0.16461265  0.28677425  1
  H  H42  1  0.82090645  0.23171045  0.14741138  1
  H  H43  1  0.72574738  0.15161892  0.12417194  1
  H  H44  1  0.69387054  0.27783606  0.15049411  1
  H  H45  1  0.93743924  0.21455931  0.45860763  1
  H  H46  1  0.92705941  0.16046611  0.63254974  1
  H  H47  1  0.82337517  0.08679449  0.76659721  1
  H  H48  1  0.68137207  0.08454746  0.76153691  1
  H  H49  1  0.67649475  0.28190822  0.78708420  1
  H  H50  1  0.72349684  0.20202028  0.87754370  1
  H  H51  1  0.80672433  0.26865520  0.80676691  1
  H  H52  1  0.58589100  0.16712630  0.62160449  1
  H  H53  1  0.59535942  0.22086955  0.44950895  1
  H  H54  1  0.57249467  0.74698741  0.38825539  1
  H  H55  1  0.64523449  0.62864023  0.35172865  1
  H  H56  1  0.59762554  0.72602646  0.26544277  1
  H  H57  1  0.71735293  0.85852764  0.32404756  1
  H  H58  1  0.89543055  0.77405476  0.28104760  1
  H  H59  1  0.83960472  0.64569976  0.28115532  1
  H  H60  1  0.76259286  0.83345221  0.15866279  1
  H  H61  1  0.85537088  0.74304530  0.12348395  1
  H  H62  1  0.73314983  0.70550153  0.14985229  1
  H  H63  1  0.77881038  0.93809361  0.45487962  1
  H  H64  1  0.83378351  0.92979785  0.62415188  1
  H  H65  1  0.90302123  0.82647277  0.76094855  1
  H  H66  1  0.92125809  0.68427448  0.75725105  1
  H  H67  1  0.73091768  0.67301895  0.79445935  1
  H  H68  1  0.79716691  0.72706591  0.87957595  1
  H  H69  1  0.71896085  0.80517804  0.80785557  1
  H  H70  1  0.83505344  0.58575772  0.62748597  1
  H  H71  1  0.78059197  0.59410724  0.45872040  1
  Pb  Pb72  1  0.01282007  0.99638918  0.00697397  1
  Pb  Pb73  1  0.00867559  0.47929810  0.01544397  1
  Pb  Pb74  1  0.49668488  0.98890784  0.00440901  1
  Pb  Pb75  1  0.52179595  0.50053830  0.97695575  1
  C  C76  1  0.12844638  0.27625153  0.66833195  1
  C  C77  1  0.24079333  0.22403221  0.66002536  1
  C  C78  1  0.31934370  0.27045615  0.72644165  1
  C  C79  1  0.28045584  0.23347705  0.55651459  1
  C  C80  1  0.29632180  0.14137737  0.50339674  1
  C  C81  1  0.32455499  0.14780482  0.40610697  1
  C  C82  1  0.33826902  0.24739715  0.35992466  1
  C  C83  1  0.36879600  0.25423312  0.25522136  1
  C  C84  1  0.32399934  0.34012191  0.41293943  1
  C  C85  1  0.29498680  0.33322916  0.51015544  1
  C  C86  1  0.28389002  0.86632631  0.66567437  1
  C  C87  1  0.22486596  0.76406311  0.65754231  1
  C  C88  1  0.26368691  0.67556080  0.72881377  1
  C  C89  1  0.23173058  0.72513450  0.55591997  1
  C  C90  1  0.13847777  0.71069207  0.50706987  1
  C  C91  1  0.14286766  0.68119070  0.41165359  1
  C  C92  1  0.24092343  0.66554362  0.36298212  1
  C  C93  1  0.24523301  0.63606003  0.25978625  1
  C  C94  1  0.33478878  0.67686021  0.41238712  1
  C  C95  1  0.33014064  0.70643263  0.50779500  1
  C  C96  1  0.71965334  0.37181478  0.32569358  1
  C  C97  1  0.77587146  0.26095503  0.33779580  1
  C  C98  1  0.73367468  0.17853082  0.27258033  1
  C  C99  1  0.76780357  0.22190065  0.44194280  1
  C  C100  1  0.86036871  0.20452320  0.49465599  1
  C  C101  1  0.85460384  0.17559591  0.59215106  1
  C  C102  1  0.75597350  0.16355322  0.63902399  1
  C  C103  1  0.75055551  0.13188100  0.74385989  1
  C  C104  1  0.66299390  0.17906442  0.58621632  1
  C  C105  1  0.66897330  0.20803544  0.48874695  1
  C  C106  1  0.63226492  0.71483270  0.33663552  1
  C  C107  1  0.73492010  0.77329019  0.34331478  1
  C  C108  1  0.82214150  0.73235609  0.27299176  1
  C  C109  1  0.77448516  0.76702420  0.44505216  1
  C  C110  1  0.79052619  0.86070491  0.49270038  1
  C  C111  1  0.82045950  0.85621163  0.58826273  1
  C  C112  1  0.83504168  0.75770479  0.63819376  1
  C  C113  1  0.86627651  0.75341497  0.74113483  1
  C  C114  1  0.82178242  0.66328199  0.59009047  1
  C  C115  1  0.79180921  0.66824007  0.49459580  1
  I  I116  1  0.24948154  0.05755579  0.02211542  1
  I  I117  1  0.26302371  0.48220597  0.00205630  1
  I  I118  1  0.75247223  0.98152803  0.99876092  1
  I  I119  1  0.76061997  0.54507138  0.01038018  1
  I  I120  1  0.94417969  0.24482481  0.98279374  1
  I  I121  1  0.01733432  0.74009166  1.00524018  1
  I  I122  1  0.51741128  0.24730018  0.00314172  1
  I  I123  1  0.44891826  0.74924768  0.98043413  1
  I  I124  1  0.04284866  0.99690764  0.77947474  1
  I  I125  1  1.00279823  0.97380496  0.23631178  1
  I  I126  1  0.02446385  0.50131940  0.79080113  1
  I  I127  1  0.02554484  0.42968031  0.24380687  1
  I  I128  1  0.48764328  0.00904131  0.77827910  1
  I  I129  1  0.49462825  0.95539729  0.23166481  1
  I  I130  1  0.57552844  0.47965786  0.74918073  1
  I  I131  1  0.50995758  0.51126987  0.19955402  1
  N  N132  1  0.28508805  0.25616746  0.83036172  1
  N  N133  1  0.27276439  0.26216657  0.19222941  1
  N  N134  1  0.24011857  0.70761417  0.83026910  1
  N  N135  1  0.25695496  0.73275094  0.19190200  1
  N  N136  1  0.74408594  0.21266875  0.16805994  1
  N  N137  1  0.73820474  0.22748646  0.80715930  1
  N  N138  1  0.79034032  0.75494190  0.17083515  1
  N  N139  1  0.77169929  0.73936725  0.80982204  1
