# generated using pymatgen
data_H15PbC8I4N3
_symmetry_space_group_name_H-M   'P 1'
_cell_length_a   12.32196624
_cell_length_b   12.32565860
_cell_length_c   13.76030027
_cell_angle_alpha   91.32905131
_cell_angle_beta   91.44234002
_cell_angle_gamma   89.79111127
_symmetry_Int_Tables_number   1
_chemical_formula_structural   H15PbC8I4N3
_chemical_formula_sum   'H60 Pb4 C32 I16 N12'
_cell_volume   2088.63017664
_cell_formula_units_Z   4
loop_
 _symmetry_equiv_pos_site_id
 _symmetry_equiv_pos_as_xyz
  1  'x, y, z'
loop_
 _atom_site_type_symbol
 _atom_site_label
 _atom_site_symmetry_multiplicity
 _atom_site_fract_x
 _atom_site_fract_y
 _atom_site_fract_z
 _atom_site_occupancy
  H  H0  1  0.16758893  0.20329534  0.87002931  1
  H  H1  1  0.29792743  0.23166047  0.85431611  1
  H  H2  1  0.25219270  0.10851691  0.82662129  1
  H  H3  1  0.17403589  0.30644297  0.72559473  1
  H  H4  1  0.13718455  0.16988042  0.69522266  1
  H  H5  1  0.36794097  0.26511023  0.68917952  1
  H  H6  1  0.33581487  0.12720596  0.66418409  1
  H  H7  1  0.28938159  0.41031303  0.57435137  1
  H  H8  1  0.25644974  0.44496254  0.39651991  1
  H  H9  1  0.14862848  0.31963683  0.23379044  1
  H  H10  1  0.28939050  0.34614623  0.22412005  1
  H  H11  1  0.21950211  0.18888189  0.12751067  1
  H  H12  1  0.19606942  0.12416477  0.23139317  1
  H  H13  1  0.32351985  0.15383339  0.20343625  1
  H  H14  1  0.26659403  0.06798537  0.50564402  1
  H  H15  1  0.20129804  0.82441042  0.87353946  1
  H  H16  1  0.22998503  0.69448174  0.85076629  1
  H  H17  1  0.10617119  0.74069079  0.82630674  1
  H  H18  1  0.30305381  0.81972305  0.72849105  1
  H  H19  1  0.16573387  0.85697517  0.70102853  1
  H  H20  1  0.26153835  0.62642042  0.68145484  1
  H  H21  1  0.12354804  0.66015349  0.65807457  1
  H  H22  1  0.40734967  0.70841040  0.57200694  1
  H  H23  1  0.44196645  0.74427188  0.39640954  1
  H  H24  1  0.31743801  0.85671734  0.23991277  1
  H  H25  1  0.34276689  0.71541423  0.22194119  1
  H  H26  1  0.18701021  0.78569004  0.12846554  1
  H  H27  1  0.12217956  0.81421809  0.23248344  1
  H  H28  1  0.14915594  0.68536902  0.20164134  1
  H  H29  1  0.06488994  0.73263160  0.50366335  1
  H  H30  1  0.79297808  0.33780903  0.13138388  1
  H  H31  1  0.76880549  0.20671658  0.14741978  1
  H  H32  1  0.89148485  0.25602688  0.17278206  1
  H  H33  1  0.69428770  0.32904291  0.27718207  1
  H  H34  1  0.83150763  0.36454125  0.30695860  1
  H  H35  1  0.73597086  0.13367780  0.31067037  1
  H  H36  1  0.87393696  0.16592332  0.33610348  1
  H  H37  1  0.59022208  0.21465947  0.42540622  1
  H  H38  1  0.55584748  0.24995113  0.60260918  1
  H  H39  1  0.67853767  0.35707544  0.76315205  1
  H  H40  1  0.65470917  0.21659363  0.77695705  1
  H  H41  1  0.80792778  0.29161704  0.87317669  1
  H  H42  1  0.87456979  0.31638048  0.77103864  1
  H  H43  1  0.84828900  0.18755831  0.79863845  1
  H  H44  1  0.93289000  0.22994083  0.49547782  1
  H  H45  1  0.66985379  0.79321627  0.12576502  1
  H  H46  1  0.80074382  0.76869939  0.15002170  1
  H  H47  1  0.75090940  0.89211067  0.17021287  1
  H  H48  1  0.67499235  0.69790517  0.27368464  1
  H  H49  1  0.64025706  0.83615827  0.29894138  1
  H  H50  1  0.87099845  0.73926120  0.31741316  1
  H  H51  1  0.83723620  0.87693321  0.34076323  1
  H  H52  1  0.78783838  0.59311714  0.42702094  1
  H  H53  1  0.75117660  0.55782295  0.60227793  1
  H  H54  1  0.64066819  0.67954521  0.75760773  1
  H  H55  1  0.78189492  0.65830658  0.77858303  1
  H  H56  1  0.70334350  0.81105830  0.86991042  1
  H  H57  1  0.67721955  0.87640864  0.76606696  1
  H  H58  1  0.80602697  0.85236246  0.79966631  1
  H  H59  1  0.76900121  0.93542830  0.49658184  1
  Pb  Pb60  1  0.98841403  0.00367479  0.00102761  1
  Pb  Pb61  1  0.99514186  0.51019973  0.99918179  1
  Pb  Pb62  1  0.49477893  0.00777011  0.00001139  1
  Pb  Pb63  1  0.48775869  0.50420129  0.00194390  1
  C  C64  1  0.20400006  0.22246135  0.72142114  1
  C  C65  1  0.30413160  0.21053868  0.65904654  1
  C  C66  1  0.28056333  0.23607425  0.55429738  1
  C  C67  1  0.27614876  0.34320551  0.52222197  1
  C  C68  1  0.25846388  0.36268763  0.42388894  1
  C  C69  1  0.24576179  0.27342389  0.35993743  1
  C  C70  1  0.23041867  0.28854677  0.25192880  1
  C  C71  1  0.26409977  0.15303281  0.48449366  1
  C  C72  1  0.21913223  0.78987079  0.72311970  1
  C  C73  1  0.20702755  0.69112474  0.65497482  1
  C  C74  1  0.23287624  0.71710097  0.55189467  1
  C  C75  1  0.34011624  0.72241582  0.52054977  1
  C  C76  1  0.35964731  0.74241979  0.42343695  1
  C  C77  1  0.27053104  0.75715941  0.36001020  1
  C  C78  1  0.28586693  0.77497809  0.25310207  1
  C  C79  1  0.14996167  0.73554264  0.48287014  1
  C  C80  1  0.77817637  0.29855298  0.28030054  1
  C  C81  1  0.79047984  0.19723057  0.34133724  1
  C  C82  1  0.76481594  0.21947182  0.44619303  1
  C  C83  1  0.65757374  0.22608567  0.47770446  1
  C  C84  1  0.63819714  0.24502011  0.57578441  1
  C  C85  1  0.72737361  0.25656136  0.64018585  1
  C  C86  1  0.71145390  0.27538793  0.74762280  1
  C  C87  1  0.84784022  0.23404561  0.51642206  1
  C  C88  1  0.70631127  0.78134170  0.27719033  1
  C  C89  1  0.80630191  0.79348650  0.34414172  1
  C  C90  1  0.78183999  0.76753483  0.44758254  1
  C  C91  1  0.77532195  0.66024434  0.47874147  1
  C  C92  1  0.75506179  0.64030573  0.57571810  1
  C  C93  1  0.74154745  0.72930356  0.63940442  1
  C  C94  1  0.72179052  0.71367285  0.74588865  1
  C  C95  1  0.76516572  0.85024795  0.51696236  1
  I  I96  1  0.24305665  0.95020507  0.00936701  1
  I  I97  1  0.24235921  0.57972904  0.00738507  1
  I  I98  1  0.74279535  0.07130271  0.00444177  1
  I  I99  1  0.74291289  0.44608879  0.98995036  1
  I  I100  1  0.05318714  0.25618121  0.01246032  1
  I  I101  1  0.92444933  0.75630012  0.98942912  1
  I  I102  1  0.42904073  0.25537309  0.99440949  1
  I  I103  1  0.55330359  0.75481244  0.98794928  1
  I  I104  1  0.97413967  0.00161344  0.76818270  1
  I  I105  1  0.00956918  0.00362744  0.23393914  1
  I  I106  1  0.98957367  0.49708537  0.76593603  1
  I  I107  1  -0.00091608  0.52575256  0.23350688  1
  I  I108  1  0.49135161  0.99051102  0.76731698  1
  I  I109  1  0.50156313  0.03144576  0.23498247  1
  I  I110  1  0.46907892  0.50321741  0.76374587  1
  I  I111  1  0.50254355  0.51105003  0.23378756  1
  N  N112  1  0.23161014  0.18954629  0.82314813  1
  N  N113  1  0.24383413  0.18234682  0.19960352  1
  N  N114  1  0.24709470  0.17061598  0.38959384  1
  N  N115  1  0.18727500  0.76064114  0.82340299  1
  N  N116  1  0.17944186  0.76395026  0.20005311  1
  N  N117  1  0.16765021  0.75520645  0.38924303  1
  N  N118  1  0.80982338  0.27338551  0.17798565  1
  N  N119  1  0.81731260  0.26591288  0.80146808  1
  N  N120  1  0.83032247  0.25192149  0.61117760  1
  N  N121  1  0.73387453  0.81063678  0.17576067  1
  N  N122  1  0.72846889  0.82010092  0.79912701  1
  N  N123  1  0.74556525  0.83225091  0.61053477  1
