# generated using pymatgen
data_H13PbC8I4N2F
_symmetry_space_group_name_H-M   'P 1'
_cell_length_a   12.68984419
_cell_length_b   12.59241523
_cell_length_c   12.47807193
_cell_angle_alpha   90.54286635
_cell_angle_beta   89.76510155
_cell_angle_gamma   89.86524248
_symmetry_Int_Tables_number   1
_chemical_formula_structural   H13PbC8I4N2F
_chemical_formula_sum   'H52 Pb4 C32 I16 N8 F4'
_cell_volume   1993.83137285
_cell_formula_units_Z   4
loop_
 _symmetry_equiv_pos_site_id
 _symmetry_equiv_pos_as_xyz
  1  'x, y, z'
loop_
 _atom_site_type_symbol
 _atom_site_label
 _atom_site_symmetry_multiplicity
 _atom_site_fract_x
 _atom_site_fract_y
 _atom_site_fract_z
 _atom_site_occupancy
  H  H0  1  0.26016470  0.12270533  0.84832205  1
  H  H1  1  0.35589241  0.12558110  0.75608525  1
  H  H2  1  0.30538273  0.23879842  0.80783007  1
  H  H3  1  0.13052404  0.18958860  0.73335988  1
  H  H4  1  0.19131956  0.07603618  0.67663257  1
  H  H5  1  0.20997837  0.37764266  0.67031993  1
  H  H6  1  0.29530511  0.37831024  0.33725790  1
  H  H7  1  0.31408800  0.07561772  0.32723600  1
  H  H8  1  0.38286412  0.18759011  0.27999597  1
  H  H9  1  0.22434049  0.24200063  0.18606792  1
  H  H10  1  0.26356946  0.12133381  0.15200339  1
  H  H11  1  0.15886542  0.13602090  0.23348692  1
  H  H12  1  0.25216900  0.07924871  0.50024153  1
  H  H13  1  0.12727814  0.73744244  0.85043761  1
  H  H14  1  0.12879783  0.64146533  0.75722455  1
  H  H15  1  0.24196173  0.69249289  0.80514590  1
  H  H16  1  0.18882829  0.86897711  0.73497114  1
  H  H17  1  0.07707446  0.80606957  0.67963699  1
  H  H18  1  0.37668454  0.79016771  0.66895133  1
  H  H19  1  0.37922733  0.70478322  0.33529424  1
  H  H20  1  0.07899393  0.68417791  0.32871198  1
  H  H21  1  0.18999555  0.61328611  0.28084955  1
  H  H22  1  0.24488644  0.77504721  0.18764942  1
  H  H23  1  0.12832985  0.72963611  0.15166393  1
  H  H24  1  0.13552811  0.83753080  0.23230059  1
  H  H25  1  0.08154605  0.74586950  0.50170513  1
  H  H26  1  0.87996005  0.25706607  0.15161734  1
  H  H27  1  0.86104602  0.15467787  0.23393612  1
  H  H28  1  0.75835813  0.22330650  0.18443556  1
  H  H29  1  0.81287617  0.38228093  0.27874424  1
  H  H30  1  0.92464208  0.31365763  0.32616230  1
  H  H31  1  0.62428742  0.29477791  0.33473277  1
  H  H32  1  0.62392702  0.21202374  0.66738853  1
  H  H33  1  0.92304083  0.19090776  0.67596211  1
  H  H34  1  0.80984786  0.13188174  0.73217273  1
  H  H35  1  0.76294983  0.30909843  0.80768364  1
  H  H36  1  0.87771724  0.26227469  0.84766646  1
  H  H37  1  0.87525558  0.35829463  0.75606846  1
  H  H38  1  0.92058741  0.25269636  0.50057529  1
  H  H39  1  0.73650147  0.87210019  0.15045644  1
  H  H40  1  0.84127156  0.86178204  0.23164562  1
  H  H41  1  0.77772151  0.75308924  0.18728839  1
  H  H42  1  0.61739464  0.81144043  0.28005016  1
  H  H43  1  0.68697040  0.92376611  0.32695439  1
  H  H44  1  0.70546735  0.62131454  0.33460411  1
  H  H45  1  0.78857045  0.62390373  0.66741387  1
  H  H46  1  0.80501854  0.92570678  0.67948765  1
  H  H47  1  0.86703392  0.81257635  0.73371073  1
  H  H48  1  0.69213658  0.75979701  0.80540025  1
  H  H49  1  0.73567537  0.87539511  0.85034184  1
  H  H50  1  0.64088891  0.87313830  0.75762994  1
  H  H51  1  0.74686941  0.92143914  0.50154450  1
  Pb  Pb52  1  0.00683434  0.99759287  0.01829995  1
  Pb  Pb53  1  -0.00084010  0.50666196  0.98515667  1
  Pb  Pb54  1  0.50394543  0.01525616  0.98298208  1
  Pb  Pb55  1  0.51260491  0.50663732  0.99277248  1
  C  C56  1  0.20326218  0.16022037  0.69560361  1
  C  C57  1  0.23001723  0.22099069  0.59668708  1
  C  C58  1  0.22865877  0.33207452  0.59802300  1
  C  C59  1  0.24948513  0.38515049  0.50317705  1
  C  C60  1  0.27233731  0.33256869  0.40752101  1
  C  C61  1  0.27191355  0.22141868  0.40680699  1
  C  C62  1  0.30618437  0.16021207  0.30953700  1
  C  C63  1  0.25063921  0.16600604  0.50103061  1
  C  C64  1  0.16095688  0.79542136  0.69693015  1
  C  C65  1  0.22159124  0.76939348  0.59683707  1
  C  C66  1  0.33183204  0.77131051  0.59698629  1
  C  C67  1  0.38502581  0.75065760  0.50147413  1
  C  C68  1  0.33339158  0.72732748  0.40623314  1
  C  C69  1  0.22317578  0.72675793  0.40674176  1
  C  C70  1  0.16299877  0.69119030  0.31023900  1
  C  C71  1  0.16760300  0.74809829  0.50163511  1
  C  C72  1  0.84055931  0.30547165  0.30847933  1
  C  C73  1  0.78001454  0.27241328  0.40570061  1
  C  C74  1  0.66966282  0.27272417  0.40534921  1
  C  C75  1  0.61711532  0.25039098  0.50030327  1
  C  C76  1  0.66940017  0.23007022  0.59561698  1
  C  C77  1  0.77960346  0.23117629  0.59537423  1
  C  C78  1  0.83964633  0.20430990  0.69458912  1
  C  C79  1  0.83451706  0.25142280  0.50036176  1
  C  C80  1  0.69422314  0.83872454  0.30921646  1
  C  C81  1  0.72773998  0.77868678  0.40618251  1
  C  C82  1  0.72732074  0.66755503  0.40550824  1
  C  C83  1  0.74986247  0.61553089  0.50036930  1
  C  C84  1  0.77034457  0.66914589  0.59577962  1
  C  C85  1  0.76896648  0.78026313  0.59601033  1
  C  C86  1  0.79437210  0.84119912  0.69627147  1
  C  C87  1  0.74860714  0.83468030  0.50109121  1
  I  I88  1  0.25116662  0.93831069  -0.00368688  1
  I  I89  1  0.23916829  0.56992280  0.00836093  1
  I  I90  1  0.75497155  0.05661395  0.99900683  1
  I  I91  1  0.74723363  0.41708715  0.00626238  1
  I  I92  1  0.05346929  0.25044602  0.00953293  1
  I  I93  1  0.93394970  0.75469131  0.98396331  1
  I  I94  1  0.41824669  0.25204662  0.00739620  1
  I  I95  1  0.57301730  0.75561521  0.00403601  1
  I  I96  1  1.00050736  0.00305410  0.78095195  1
  I  I97  1  0.00134763  0.99693752  0.29563624  1
  I  I98  1  0.99956704  0.50185823  0.71084302  1
  I  I99  1  0.96853407  0.52923108  0.22475705  1
  I  I100  1  0.50039408  0.00252803  0.70959483  1
  I  I101  1  0.49876639  0.99792000  0.22287903  1
  I  I102  1  0.50408789  0.49719212  0.74206293  1
  I  I103  1  0.49681009  0.50038820  0.24996450  1
  N  N104  1  0.28588728  0.16344581  0.78134815  1
  N  N105  1  0.23285062  0.16617345  0.21516884  1
  N  N106  1  0.16650059  0.71181889  0.78184975  1
  N  N107  1  0.16910657  0.76387996  0.21512772  1
  N  N108  1  0.83357241  0.22979534  0.21456341  1
  N  N109  1  0.83743848  0.28836168  0.78074592  1
  N  N110  1  0.76774010  0.83009132  0.21424700  1
  N  N111  1  0.71090317  0.83579016  0.78169944  1
  F  F112  1  0.24799084  0.49299318  0.50424788  1
  F  F113  1  0.49198853  0.75269975  0.50139101  1
  F  F114  1  0.51013120  0.24889124  0.50016289  1
  F  F115  1  0.75147582  0.50768320  0.49995371  1
