# generated using pymatgen
data_H16PbC9(I2N)2
_symmetry_space_group_name_H-M   'P 1'
_cell_length_a   12.70592000
_cell_length_b   12.52674322
_cell_length_c   12.66636040
_cell_angle_alpha   92.15616882
_cell_angle_beta   91.82232012
_cell_angle_gamma   92.26587370
_symmetry_Int_Tables_number   1
_chemical_formula_structural   H16PbC9(I2N)2
_chemical_formula_sum   'H64 Pb4 C36 I16 N8'
_cell_volume   2011.90456019
_cell_formula_units_Z   4
loop_
 _symmetry_equiv_pos_site_id
 _symmetry_equiv_pos_as_xyz
  1  'x, y, z'
loop_
 _atom_site_type_symbol
 _atom_site_label
 _atom_site_symmetry_multiplicity
 _atom_site_fract_x
 _atom_site_fract_y
 _atom_site_fract_z
 _atom_site_occupancy
  H  H0  1  0.17119558  0.03179791  0.73202202  1
  H  H1  1  0.13074691  0.05323107  0.59943240  1
  H  H2  1  0.26640833  0.03327055  0.63141512  1
  H  H3  1  0.14060770  0.22162049  0.71637277  1
  H  H4  1  0.36486656  0.16690573  0.74135220  1
  H  H5  1  0.27702867  0.18326841  0.83372051  1
  H  H6  1  0.32535088  0.29114127  0.76791547  1
  H  H7  1  0.19635883  0.40241345  0.65474037  1
  H  H8  1  0.24243981  0.50785707  0.50002723  1
  H  H9  1  0.30472398  0.41682958  0.33686644  1
  H  H10  1  0.35059609  0.12063705  0.31782627  1
  H  H11  1  0.39929876  0.24549240  0.27252010  1
  H  H12  1  0.27931733  0.15138086  0.14770155  1
  H  H13  1  0.18105157  0.15547465  0.23268713  1
  H  H14  1  0.23035890  0.26775682  0.18440173  1
  H  H15  1  0.27202172  0.11331194  0.48270250  1
  H  H16  1  0.04853534  0.84209690  0.74465329  1
  H  H17  1  0.07448405  0.87055064  0.61173314  1
  H  H18  1  0.03635922  0.73785456  0.64443412  1
  H  H19  1  0.23929985  0.85698998  0.73109978  1
  H  H20  1  0.15755049  0.63207772  0.74612438  1
  H  H21  1  0.17459787  0.72455634  0.84264867  1
  H  H22  1  0.27988846  0.67449111  0.78346085  1
  H  H23  1  0.40889175  0.78345089  0.67062041  1
  H  H24  1  0.50788689  0.73233374  0.51200743  1
  H  H25  1  0.41179526  0.68029961  0.34297114  1
  H  H26  1  0.11978971  0.63680614  0.31850515  1
  H  H27  1  0.24158085  0.60352706  0.26260041  1
  H  H28  1  0.16058073  0.72140016  0.15387261  1
  H  H29  1  0.13743408  0.81143153  0.25150305  1
  H  H30  1  0.26133807  0.79448412  0.21464792  1
  H  H31  1  0.11638835  0.72855157  0.49002326  1
  H  H32  1  0.97669586  0.34689262  0.26233439  1
  H  H33  1  0.95260059  0.38051845  0.39583020  1
  H  H34  1  0.96491922  0.24335385  0.35440236  1
  H  H35  1  0.79137413  0.39021838  0.27778944  1
  H  H36  1  0.81380349  0.15783733  0.23350619  1
  H  H37  1  0.83997542  0.25507436  0.15125791  1
  H  H38  1  0.71646439  0.23133364  0.18799720  1
  H  H39  1  0.60154093  0.31093629  0.31997363  1
  H  H40  1  0.49451328  0.27229752  0.47506951  1
  H  H41  1  0.58058673  0.22003132  0.64342778  1
  H  H42  1  0.87039290  0.16665313  0.66018684  1
  H  H43  1  0.74767828  0.12084257  0.70787874  1
  H  H44  1  0.84875960  0.22942579  0.83075736  1
  H  H45  1  0.85183536  0.33641309  0.75532797  1
  H  H46  1  0.73826254  0.29318984  0.80606540  1
  H  H47  1  0.88343855  0.25145729  0.50408833  1
  H  H48  1  0.65046211  0.97511279  0.26807344  1
  H  H49  1  0.61572847  0.95177586  0.39951225  1
  H  H50  1  0.75095577  0.97835005  0.37001650  1
  H  H51  1  0.61582510  0.78260411  0.28394312  1
  H  H52  1  0.83993188  0.84985578  0.26037739  1
  H  H53  1  0.74493250  0.83302813  0.16647311  1
  H  H54  1  0.79402984  0.72628707  0.22723703  1
  H  H55  1  0.68432390  0.60314161  0.33908076  1
  H  H56  1  0.72786922  0.49934721  0.49556231  1
  H  H57  1  0.78609371  0.59271001  0.66547014  1
  H  H58  1  0.84272535  0.88864713  0.69027981  1
  H  H59  1  0.87390528  0.76510131  0.74464566  1
  H  H60  1  0.76020227  0.86813923  0.85142526  1
  H  H61  1  0.66441823  0.86532414  0.75871115  1
  H  H62  1  0.69830646  0.75287058  0.81616057  1
  H  H63  1  0.75456918  0.89634491  0.52174493  1
  Pb  Pb64  1  0.99362729  0.00803202  0.04697870  1
  Pb  Pb65  1  0.96955877  0.50906702  0.99676822  1
  Pb  Pb66  1  0.47719874  0.97833835  0.00152662  1
  Pb  Pb67  1  0.48064695  0.49535654  0.99822027  1
  C  C68  1  0.19434894  0.06938876  0.65918887  1
  C  C69  1  0.21013012  0.18935406  0.67848909  1
  C  C70  1  0.23256717  0.25089642  0.58042674  1
  C  C71  1  0.22249444  0.36186686  0.58310098  1
  C  C72  1  0.24668855  0.42113999  0.49542878  1
  C  C73  1  0.28041267  0.37008424  0.40367935  1
  C  C74  1  0.28893761  0.25877295  0.39903733  1
  C  C75  1  0.32996670  0.20304698  0.30284553  1
  C  C76  1  0.26472158  0.19978551  0.48742970  1
  C  C77  1  0.08216042  0.81044522  0.67191177  1
  C  C78  1  0.19757350  0.78756742  0.69060390  1
  C  C79  1  0.25577000  0.75743951  0.59207200  1
  C  C80  1  0.36620464  0.75903320  0.59689322  1
  C  C81  1  0.42208461  0.73204733  0.50755010  1
  C  C82  1  0.36831568  0.70407678  0.41229226  1
  C  C83  1  0.25804924  0.70302598  0.40567594  1
  C  C84  1  0.20015547  0.66685087  0.30443558  1
  C  C85  1  0.20227137  0.72988362  0.49586612  1
  C  C86  1  0.93491071  0.32068292  0.33166498  1
  C  C87  1  0.81681158  0.31360741  0.30788281  1
  C  C88  1  0.75057739  0.28355526  0.40047274  1
  C  C89  1  0.64041073  0.28758847  0.39325593  1
  C  C90  1  0.57977673  0.26651737  0.48060207  1
  C  C91  1  0.62785119  0.23898436  0.57567004  1
  C  C92  1  0.73738416  0.23267477  0.58323622  1
  C  C93  1  0.79104563  0.19089472  0.67898610  1
  C  C94  1  0.79806051  0.25579826  0.49609461  1
  C  C95  1  0.67625097  0.93844748  0.34126040  1
  C  C96  1  0.68869597  0.81915844  0.32145740  1
  C  C97  1  0.71708633  0.75740364  0.41874291  1
  C  C98  1  0.71013332  0.64525253  0.41297141  1
  C  C99  1  0.73353808  0.58644038  0.50145405  1
  C  C100  1  0.76461959  0.63877405  0.59711157  1
  C  C101  1  0.77184871  0.75065166  0.60447652  1
  C  C102  1  0.81121874  0.80804415  0.70501045  1
  C  C103  1  0.74810379  0.80925178  0.51515397  1
  I  I104  1  0.23913782  0.02108813  0.96225417  1
  I  I105  1  0.23618138  0.54432989  0.02112849  1
  I  I106  1  0.74682113  0.00591673  0.04376670  1
  I  I107  1  0.73473860  0.42124650  0.98642060  1
  I  I108  1  0.03160637  0.26874917  0.05136781  1
  I  I109  1  0.00583366  0.76507260  0.96900328  1
  I  I110  1  0.50464820  0.21677021  0.06621510  1
  I  I111  1  0.57607044  0.72618102  0.98998135  1
  I  I112  1  0.95921447  0.04728406  0.81311837  1
  I  I113  1  0.01527690  0.98868330  0.31118461  1
  I  I114  1  0.99216720  0.48648676  0.73618353  1
  I  I115  1  0.92346665  0.58563411  0.23018532  1
  I  I116  1  0.51550758  0.00561146  0.74409089  1
  I  I117  1  0.40964792  0.92195518  0.23028604  1
  I  I118  1  0.43870766  0.46696851  0.74647150  1
  I  I119  1  0.50170468  0.49880712  0.24335243  1
  N  N120  1  0.29975452  0.21029254  0.76084185  1
  N  N121  1  0.25020710  0.19434456  0.21163469  1
  N  N122  1  0.20419174  0.69935242  0.77060010  1
  N  N123  1  0.18866465  0.75400725  0.22629691  1
  N  N124  1  0.79447583  0.23427113  0.21485877  1
  N  N125  1  0.80664161  0.26789345  0.77252243  1
  N  N126  1  0.77138014  0.80538850  0.23853815  1
  N  N127  1  0.72851164  0.82337184  0.78655559  1
