# generated using pymatgen
data_H15PbC8I4N3
_symmetry_space_group_name_H-M   'P 1'
_cell_length_a   12.87725356
_cell_length_b   12.81496940
_cell_length_c   12.39557956
_cell_angle_alpha   86.80916699
_cell_angle_beta   86.80396070
_cell_angle_gamma   90.29173656
_symmetry_Int_Tables_number   1
_chemical_formula_structural   H15PbC8I4N3
_chemical_formula_sum   'H60 Pb4 C32 I16 N12'
_cell_volume   2039.12170613
_cell_formula_units_Z   4
loop_
 _symmetry_equiv_pos_site_id
 _symmetry_equiv_pos_as_xyz
  1  'x, y, z'
loop_
 _atom_site_type_symbol
 _atom_site_label
 _atom_site_symmetry_multiplicity
 _atom_site_fract_x
 _atom_site_fract_y
 _atom_site_fract_z
 _atom_site_occupancy
  H  H0  1  0.34405192  0.39212156  0.80143996  1
  H  H1  1  0.39181513  0.39165029  0.66506277  1
  H  H2  1  0.26649012  0.44415669  0.69801253  1
  H  H3  1  0.32678781  0.21392138  0.74200978  1
  H  H4  1  0.12513455  0.32648854  0.76173220  1
  H  H5  1  0.18913252  0.26913121  0.86076772  1
  H  H6  1  0.13607686  0.19379908  0.77258596  1
  H  H7  1  0.26375036  0.08111429  0.63069728  1
  H  H8  1  0.22895352  0.03639620  0.44212327  1
  H  H9  1  0.24857160  0.11747132  0.24036568  1
  H  H10  1  0.11586706  0.14628908  0.26833334  1
  H  H11  1  0.17557698  0.26066208  0.12601382  1
  H  H12  1  0.28014133  0.30107252  0.18815557  1
  H  H13  1  0.15985350  0.33321740  0.23326768  1
  H  H14  1  0.23732048  0.40663603  0.52733513  1
  H  H15  1  0.38263833  0.65639766  0.81588294  1
  H  H16  1  0.38181347  0.61630440  0.68188960  1
  H  H17  1  0.43628640  0.73937697  0.70750798  1
  H  H18  1  0.20624197  0.67729972  0.75603663  1
  H  H19  1  0.31963513  0.88134695  0.76349786  1
  H  H20  1  0.26117995  0.80942848  0.86581383  1
  H  H21  1  0.18877895  0.86927342  0.77397788  1
  H  H22  1  0.07439404  0.74985878  0.63867341  1
  H  H23  1  0.03298002  0.78033812  0.44434252  1
  H  H24  1  0.11503499  0.75238834  0.24527808  1
  H  H25  1  0.15124521  0.88432005  0.25406762  1
  H  H26  1  0.26811050  0.82766949  0.12825632  1
  H  H27  1  0.28876468  0.71012082  0.19177602  1
  H  H28  1  0.33766971  0.81938256  0.23927662  1
  H  H29  1  0.40012738  0.76510902  0.53425140  1
  H  H30  1  0.60744388  0.15842829  0.19948692  1
  H  H31  1  0.60476910  0.11470333  0.33712876  1
  H  H32  1  0.55794126  0.24141195  0.29957678  1
  H  H33  1  0.78448633  0.17012544  0.25871437  1
  H  H34  1  0.68515271  0.37983881  0.23682399  1
  H  H35  1  0.73129156  0.30850937  0.13738367  1
  H  H36  1  0.81493005  0.35733876  0.21993969  1
  H  H37  1  0.91994450  0.23877522  0.36792335  1
  H  H38  1  0.96402010  0.27263710  0.55691725  1
  H  H39  1  0.88416495  0.24871858  0.75843859  1
  H  H40  1  0.85178608  0.38184353  0.73355719  1
  H  H41  1  0.73989124  0.31694917  0.87452097  1
  H  H42  1  0.70374446  0.21084483  0.81161885  1
  H  H43  1  0.66779696  0.33154921  0.76735020  1
  H  H44  1  0.59567033  0.26079018  0.47231379  1
  H  H45  1  0.84280031  0.61639488  0.18505313  1
  H  H46  1  0.88622211  0.62069926  0.31754344  1
  H  H47  1  0.76387458  0.56291059  0.29667803  1
  H  H48  1  0.81962787  0.79474133  0.24433677  1
  H  H49  1  0.62303315  0.67187355  0.23720526  1
  H  H50  1  0.69051893  0.73559510  0.13548049  1
  H  H51  1  0.62620659  0.80419240  0.22832680  1
  H  H52  1  0.74964971  0.92510163  0.36288523  1
  H  H53  1  0.72187301  0.96631671  0.55757629  1
  H  H54  1  0.74818141  0.88260494  0.75601910  1
  H  H55  1  0.61640142  0.84822263  0.74609625  1
  H  H56  1  0.66936459  0.72810708  0.87169054  1
  H  H57  1  0.78705965  0.70754256  0.81095100  1
  H  H58  1  0.68051643  0.65928347  0.75975773  1
  H  H59  1  0.73279938  0.59762343  0.46617666  1
  Pb  Pb60  1  0.98399043  -0.00089225  1.00287608  1
  Pb  Pb61  1  0.01737493  0.50413532  0.99681399  1
  Pb  Pb62  1  0.49251235  0.00292833  0.99461529  1
  Pb  Pb63  1  0.51249697  0.49616235  0.00296612  1
  C  C64  1  0.32153583  0.38195000  0.71863087  1
  C  C65  1  0.27500016  0.27426312  0.70867815  1
  C  C66  1  0.25246068  0.24750905  0.59493250  1
  C  C67  1  0.24973396  0.14250179  0.56895747  1
  C  C68  1  0.23133518  0.11751619  0.46412689  1
  C  C69  1  0.21719711  0.19952636  0.38726668  1
  C  C70  1  0.19584880  0.17662892  0.27268504  1
  C  C71  1  0.23629608  0.32351198  0.51228724  1
  C  C72  1  0.37286993  0.68381837  0.73185726  1
  C  C73  1  0.26650975  0.73156415  0.71915223  1
  C  C74  1  0.24074804  0.75652459  0.60303703  1
  C  C75  1  0.13659837  0.76111117  0.57565937  1
  C  C76  1  0.11324955  0.77648471  0.46784893  1
  C  C77  1  0.19594486  0.78539131  0.38972407  1
  C  C78  1  0.17646498  0.80332786  0.27136711  1
  C  C79  1  0.31750453  0.76799427  0.51875903  1
  C  C80  1  0.61792803  0.18331413  0.28131164  1
  C  C81  1  0.72693145  0.22556381  0.29072250  1
  C  C82  1  0.75410188  0.24833314  0.40416047  1
  C  C83  1  0.85864034  0.25135426  0.42997140  1
  C  C84  1  0.88331258  0.26917181  0.53505922  1
  C  C85  1  0.80160014  0.28129324  0.61241036  1
  C  C86  1  0.82399053  0.30098031  0.72758754  1
  C  C87  1  0.67838311  0.26271193  0.48725620  1
  C  C88  1  0.81758089  0.62719026  0.26951643  1
  C  C89  1  0.76762885  0.73273110  0.28181908  1
  C  C90  1  0.74247259  0.75806538  0.39802152  1
  C  C91  1  0.73817534  0.86257058  0.42577495  1
  C  C92  1  0.72401093  0.88573986  0.53372402  1
  C  C93  1  0.71455538  0.80234882  0.61137262  1
  C  C94  1  0.69678431  0.82166325  0.72958059  1
  C  C95  1  0.73067891  0.68058718  0.48190205  1
  I  I96  1  0.24191364  1.00180104  0.01554075  1
  I  I97  1  0.26642767  0.49733594  0.01423982  1
  I  I98  1  0.74200798  0.99362901  0.97029016  1
  I  I99  1  0.76904922  0.49761528  0.98952501  1
  I  I100  1  -0.00018848  0.24801221  0.00316070  1
  I  I101  1  0.00975752  0.74861409  0.01161735  1
  I  I102  1  0.51002201  0.24932396  0.99855484  1
  I  I103  1  0.50165574  0.74739868  0.99454803  1
  I  I104  1  0.03791959  0.01445748  0.74154289  1
  I  I105  1  0.95117828  0.00093474  0.25769323  1
  I  I106  1  0.03791473  0.50806640  0.73557618  1
  I  I107  1  0.01143581  0.44684477  0.25481960  1
  I  I108  1  0.46711359  0.01207181  0.73559525  1
  I  I109  1  0.48850973  0.94136811  0.25257354  1
  I  I110  1  0.57340891  0.49815303  0.74798662  1
  I  I111  1  0.52522022  0.49607585  0.26849621  1
  N  N112  1  0.17524338  0.26452121  0.78005198  1
  N  N113  1  0.20520158  0.27307291  0.20021091  1
  N  N114  1  0.21961322  0.30038561  0.41040327  1
  N  N115  1  0.25782178  0.82852461  0.78422821  1
  N  N116  1  0.27339654  0.78750242  0.20300510  1
  N  N117  1  0.29577729  0.78139759  0.41449775  1
  N  N118  1  0.74135636  0.32389652  0.21694013  1
  N  N119  1  0.72829950  0.28739485  0.80011673  1
  N  N120  1  0.70120588  0.27800497  0.58946066  1
  N  N121  1  0.67114726  0.73715459  0.21711376  1
  N  N122  1  0.71066731  0.72377915  0.79761921  1
  N  N123  1  0.71740092  0.70215869  0.58625765  1
