# generated using pymatgen
data_H12PbC7I4N3F
_symmetry_space_group_name_H-M   'P 1'
_cell_length_a   12.52955393
_cell_length_b   12.47130617
_cell_length_c   12.30181785
_cell_angle_alpha   89.20898776
_cell_angle_beta   88.80866256
_cell_angle_gamma   88.54204519
_symmetry_Int_Tables_number   1
_chemical_formula_structural   H12PbC7I4N3F
_chemical_formula_sum   'H48 Pb4 C28 I16 N12 F4'
_cell_volume   1921.07365862
_cell_formula_units_Z   4
loop_
 _symmetry_equiv_pos_site_id
 _symmetry_equiv_pos_as_xyz
  1  'x, y, z'
loop_
 _atom_site_type_symbol
 _atom_site_label
 _atom_site_symmetry_multiplicity
 _atom_site_fract_x
 _atom_site_fract_y
 _atom_site_fract_z
 _atom_site_occupancy
  H  H0  1  0.18071981  0.15834006  0.77180114  1
  H  H1  1  0.30774485  0.17816755  0.79802090  1
  H  H2  1  0.21313572  0.23703947  0.87674446  1
  H  H3  1  0.15581519  0.35824585  0.74331090  1
  H  H4  1  0.29682797  0.36518115  0.74844995  1
  H  H5  1  0.23842897  0.44627027  0.54506304  1
  H  H6  1  0.35583626  0.18823204  0.25510719  1
  H  H7  1  0.26090735  0.08830626  0.28272493  1
  H  H8  1  0.21639871  0.30397725  0.18269379  1
  H  H9  1  0.12151662  0.21676564  0.22310498  1
  H  H10  1  0.21222618  0.18142953  0.12868812  1
  H  H11  1  0.25001835  0.05868862  0.47171675  1
  H  H12  1  0.16157265  0.83983238  0.77394811  1
  H  H13  1  0.17380845  0.70773322  0.79374990  1
  H  H14  1  0.23529832  0.79083188  0.87675623  1
  H  H15  1  0.35522865  0.85106181  0.73706002  1
  H  H16  1  0.36546202  0.70885459  0.75126282  1
  H  H17  1  0.44568007  0.76041646  0.54478338  1
  H  H18  1  0.19186965  0.63608103  0.26304866  1
  H  H19  1  0.09295605  0.73899904  0.28208416  1
  H  H20  1  0.31280546  0.77054180  0.19078247  1
  H  H21  1  0.22096665  0.86874260  0.21488736  1
  H  H22  1  0.19457965  0.77439292  0.12645987  1
  H  H23  1  0.06078056  0.74805368  0.47362497  1
  H  H24  1  0.83846761  0.33299539  0.22823388  1
  H  H25  1  0.82661155  0.20356151  0.20102533  1
  H  H26  1  0.76231160  0.29553319  0.12409546  1
  H  H27  1  0.64011856  0.34600760  0.26131190  1
  H  H28  1  0.63944741  0.20416355  0.25063350  1
  H  H29  1  0.55589205  0.26080331  0.45724659  1
  H  H30  1  0.81345794  0.14440116  0.74621393  1
  H  H31  1  0.91212543  0.24021091  0.71743630  1
  H  H32  1  0.69576732  0.28388369  0.81653358  1
  H  H33  1  0.78171512  0.38000147  0.77839581  1
  H  H34  1  0.81660785  0.28897302  0.87185389  1
  H  H35  1  0.94160273  0.24928857  0.52759575  1
  H  H36  1  0.66569132  0.84357508  0.23590259  1
  H  H37  1  0.78864764  0.81620663  0.18956854  1
  H  H38  1  0.68462770  0.76452968  0.12727082  1
  H  H39  1  0.64422935  0.64280898  0.26484534  1
  H  H40  1  0.78483536  0.63176503  0.24473697  1
  H  H41  1  0.73715817  0.55223711  0.45384354  1
  H  H42  1  0.85915433  0.80515417  0.73802885  1
  H  H43  1  0.75989801  0.90759861  0.71724200  1
  H  H44  1  0.71700784  0.68907525  0.80712406  1
  H  H45  1  0.62553749  0.78869710  0.78395181  1
  H  H46  1  0.72071957  0.80648214  0.87329749  1
  H  H47  1  0.75049847  0.93915798  0.52619235  1
  Pb  Pb48  1  1.00339250  0.00154868  0.00267072  1
  Pb  Pb49  1  0.99125758  0.50461006  0.00292722  1
  Pb  Pb50  1  0.50945796  0.00969805  0.00170002  1
  Pb  Pb51  1  0.48314785  0.49971259  0.99452781  1
  C  C52  1  0.23118215  0.31321186  0.72620868  1
  C  C53  1  0.23921128  0.28174715  0.60892335  1
  C  C54  1  0.24151239  0.36092577  0.52728352  1
  C  C55  1  0.24863756  0.32534877  0.42132116  1
  C  C56  1  0.25445905  0.21621355  0.39644958  1
  C  C57  1  0.27349792  0.17495697  0.28386355  1
  C  C58  1  0.24863280  0.14519111  0.48527228  1
  C  C59  1  0.31238541  0.77600812  0.72547400  1
  C  C60  1  0.28161742  0.76405899  0.60923072  1
  C  C61  1  0.36093363  0.75737144  0.52768653  1
  C  C62  1  0.32641370  0.74556030  0.42270994  1
  C  C63  1  0.21813911  0.74056361  0.39824504  1
  C  C64  1  0.17881645  0.72027491  0.28645890  1
  C  C65  1  0.14673159  0.74993301  0.48682321  1
  C  C66  1  0.68815687  0.27166800  0.27509211  1
  C  C67  1  0.71965236  0.26117706  0.39188252  1
  C  C68  1  0.64086905  0.25709500  0.47416818  1
  C  C69  1  0.67621838  0.24793254  0.57977201  1
  C  C70  1  0.78490220  0.24389710  0.60388206  1
  C  C71  1  0.82600110  0.22675806  0.71636598  1
  C  C72  1  0.85550702  0.25059321  0.51459112  1
  C  C73  1  0.71958221  0.68562451  0.27372919  1
  C  C74  1  0.73446216  0.71682800  0.38986862  1
  C  C75  1  0.74076425  0.63743160  0.47109790  1
  C  C76  1  0.75202958  0.67251744  0.57626641  1
  C  C77  1  0.75711263  0.78129122  0.60125487  1
  C  C78  1  0.77627409  0.82085528  0.71350481  1
  C  C79  1  0.74879793  0.85271271  0.51286610  1
  I  I80  1  0.25665337  0.01860303  0.00951865  1
  I  I81  1  0.24071140  0.43590792  0.00779576  1
  I  I82  1  0.75948158  0.96938533  0.98800779  1
  I  I83  1  0.74112673  0.52850607  0.99293628  1
  I  I84  1  0.97828629  0.25072569  0.98538755  1
  I  I85  1  0.03286697  0.75031196  0.01499632  1
  I  I86  1  0.55909855  0.25452027  0.98738808  1
  I  I87  1  0.48080752  0.75559975  0.01329742  1
  I  I88  1  0.03935400  1.00161142  0.74185889  1
  I  I89  1  0.01038944  0.01183476  0.26349751  1
  I  I90  1  1.00025758  0.51863727  0.74447107  1
  I  I91  1  0.97320482  0.47786694  0.26445911  1
  I  I92  1  0.51600761  0.99311856  0.73988747  1
  I  I93  1  0.52259208  0.99822131  0.26206337  1
  I  I94  1  0.48651455  0.51573709  0.73261748  1
  I  I95  1  0.48302085  0.49331358  0.25246988  1
  N  N96  1  0.23353196  0.21585213  0.79800273  1
  N  N97  1  0.20094120  0.22417127  0.20047720  1
  N  N98  1  0.24159909  0.17636310  0.58880633  1
  N  N99  1  0.21539690  0.77803633  0.79731697  1
  N  N100  1  0.23199146  0.78781527  0.20005600  1
  N  N101  1  0.17693820  0.76071803  0.58960707  1
  N  N102  1  0.78451070  0.27569493  0.20228450  1
  N  N103  1  0.77535077  0.29999292  0.79950259  1
  N  N104  1  0.82452595  0.25812382  0.41135881  1
  N  N105  1  0.71503862  0.78281163  0.20200558  1
  N  N106  1  0.70524019  0.77109070  0.79911318  1
  N  N107  1  0.73848472  0.82198045  0.40989107  1
  F  F108  1  0.24941139  0.39820084  0.33849503  1
  F  F109  1  0.40005247  0.73942992  0.34021133  1
  F  F110  1  0.60379189  0.24345157  0.66311326  1
  F  F111  1  0.75726372  0.59883996  0.65853324  1
