# generated using pymatgen
data_H14PbC8(I2N)2
_symmetry_space_group_name_H-M   'P 1'
_cell_length_a   12.73009885
_cell_length_b   12.53455424
_cell_length_c   11.83022623
_cell_angle_alpha   90.67152775
_cell_angle_beta   90.94717590
_cell_angle_gamma   88.70894389
_symmetry_Int_Tables_number   1
_chemical_formula_structural   H14PbC8(I2N)2
_chemical_formula_sum   'H56 Pb4 C32 I16 N8'
_cell_volume   1886.84455843
_cell_formula_units_Z   4
loop_
 _symmetry_equiv_pos_site_id
 _symmetry_equiv_pos_as_xyz
  1  'x, y, z'
loop_
 _atom_site_type_symbol
 _atom_site_label
 _atom_site_symmetry_multiplicity
 _atom_site_fract_x
 _atom_site_fract_y
 _atom_site_fract_z
 _atom_site_occupancy
  H  H0  1  0.09058223  0.23017547  0.67489288  1
  H  H1  1  0.17648571  0.12290456  0.71488312  1
  H  H2  1  0.14189769  0.22358189  0.81531401  1
  H  H3  1  0.23465731  0.35964531  0.70945793  1
  H  H4  1  0.37902037  0.16996503  0.74003497  1
  H  H5  1  0.33245079  0.24997685  0.84284399  1
  H  H6  1  0.40639942  0.30293127  0.74350644  1
  H  H7  1  0.27097001  0.09179082  0.55676683  1
  H  H8  1  0.30411222  0.07935705  0.35217725  1
  H  H9  1  0.38148068  0.31244304  0.19117211  1
  H  H10  1  0.28639981  0.22589529  0.15674837  1
  H  H11  1  0.40178605  0.17971988  0.20844810  1
  H  H12  1  0.31129484  0.42225676  0.33451527  1
  H  H13  1  0.27358866  0.43566243  0.53956195  1
  H  H14  1  0.22934365  0.91042555  0.68046474  1
  H  H15  1  0.12996148  0.82190533  0.71982356  1
  H  H16  1  0.22832956  0.85937079  0.81990903  1
  H  H17  1  0.36561969  0.76396273  0.71022444  1
  H  H18  1  0.18431160  0.61910710  0.74238259  1
  H  H19  1  0.26443989  0.66790224  0.84425171  1
  H  H20  1  0.31519293  0.58896630  0.74339182  1
  H  H21  1  0.09967347  0.73431544  0.56243526  1
  H  H22  1  0.08305553  0.70388741  0.35713766  1
  H  H23  1  0.30292368  0.61531343  0.18442215  1
  H  H24  1  0.22564867  0.72145943  0.15959248  1
  H  H25  1  0.17205352  0.60899086  0.20468484  1
  H  H26  1  0.41954059  0.67883071  0.33068149  1
  H  H27  1  0.43766140  0.71461824  0.53786086  1
  H  H28  1  0.77040196  0.41271606  0.32956415  1
  H  H29  1  0.87400519  0.32516935  0.28611749  1
  H  H30  1  0.77365178  0.36479902  0.18805965  1
  H  H31  1  0.64056676  0.26760476  0.29140337  1
  H  H32  1  0.82293730  0.11593640  0.26405120  1
  H  H33  1  0.75752582  0.17357379  0.15614792  1
  H  H34  1  0.69159774  0.09747813  0.24491216  1
  H  H35  1  0.90574036  0.22629684  0.44087709  1
  H  H36  1  0.92056233  0.19250818  0.64591629  1
  H  H37  1  0.69573659  0.12386257  0.81570795  1
  H  H38  1  0.77560102  0.22452975  0.84099745  1
  H  H39  1  0.82692530  0.10690572  0.79936726  1
  H  H40  1  0.58367383  0.18807964  0.66787035  1
  H  H41  1  0.56740065  0.22361859  0.46163595  1
  H  H42  1  0.59139036  0.76539175  0.32193926  1
  H  H43  1  0.67359839  0.86828891  0.27861806  1
  H  H44  1  0.63831058  0.76597254  0.18090592  1
  H  H45  1  0.74125542  0.63173307  0.28939218  1
  H  H46  1  0.87837229  0.82024550  0.26289715  1
  H  H47  1  0.82766211  0.74852619  0.15527438  1
  H  H48  1  0.90762577  0.68764635  0.24833869  1
  H  H49  1  0.77215099  0.90384170  0.43427557  1
  H  H50  1  0.80314264  0.92219225  0.63938064  1
  H  H51  1  0.88281704  0.69840838  0.81407159  1
  H  H52  1  0.77509188  0.77123543  0.84061801  1
  H  H53  1  0.88362329  0.83200161  0.79891535  1
  H  H54  1  0.80749706  0.58005000  0.67249865  1
  H  H55  1  0.77756197  0.56074487  0.46540194  1
  Pb  Pb56  1  0.02070022  1.00019017  0.03554980  1
  Pb  Pb57  1  1.00219733  0.48280413  0.98947201  1
  Pb  Pb58  1  0.49949721  0.97808457  0.99138382  1
  Pb  Pb59  1  0.51735158  0.49324198  0.98053099  1
  C  C60  1  0.16014449  0.20862415  0.72613881  1
  C  C61  1  0.25085022  0.27526913  0.68849452  1
  C  C62  1  0.27185216  0.26512065  0.56320645  1
  C  C63  1  0.27875745  0.16505996  0.50911118  1
  C  C64  1  0.29768712  0.15713696  0.39361512  1
  C  C65  1  0.31140835  0.25049835  0.33315180  1
  C  C66  1  0.30064372  0.35062163  0.38370409  1
  C  C67  1  0.28052796  0.35742262  0.49899919  1
  C  C68  1  0.21345547  0.83975262  0.73054011  1
  C  C69  1  0.28286720  0.74742276  0.69063142  1
  C  C70  1  0.27051237  0.72512524  0.56506768  1
  C  C71  1  0.17075535  0.72327927  0.51311287  1
  C  C72  1  0.16041242  0.70612616  0.39715312  1
  C  C73  1  0.25047294  0.68835573  0.33379162  1
  C  C74  1  0.35038391  0.69279651  0.38227491  1
  C  C75  1  0.35979152  0.71165463  0.49843282  1
  C  C76  1  0.78968383  0.34314287  0.27634238  1
  C  C77  1  0.72376145  0.25036470  0.31164755  1
  C  C78  1  0.73497641  0.22612842  0.43646673  1
  C  C79  1  0.83433590  0.21834477  0.48938805  1
  C  C80  1  0.84361775  0.19961423  0.60494109  1
  C  C81  1  0.75258239  0.18799193  0.66696708  1
  C  C82  1  0.65331369  0.19792853  0.61733294  1
  C  C83  1  0.64498953  0.21688098  0.50161286  1
  C  C84  1  0.65899895  0.78274252  0.26961802  1
  C  C85  1  0.75340386  0.71648560  0.30906059  1
  C  C86  1  0.77515748  0.73018716  0.43458398  1
  C  C87  1  0.78034917  0.83193035  0.48487912  1
  C  C88  1  0.79733256  0.84325815  0.60087800  1
  C  C89  1  0.80918214  0.75190095  0.66621549  1
  C  C90  1  0.79963056  0.65029581  0.61958315  1
  C  C91  1  0.78323255  0.64014173  0.50318705  1
  I  I92  1  0.25325097  0.06835084  0.00345925  1
  I  I93  1  0.26259749  0.43748318  -0.00412508  1
  I  I94  1  0.74902807  0.94086339  0.00597722  1
  I  I95  1  0.76110152  0.57156669  0.99241759  1
  I  I96  1  0.92842532  0.24520693  0.01001909  1
  I  I97  1  0.05594755  0.74800497  0.00587004  1
  I  I98  1  0.56065926  0.23949095  0.98207201  1
  I  I99  1  0.42042406  0.74007656  0.00093932  1
  I  I100  1  0.98263455  0.99467402  0.77070578  1
  I  I101  1  0.98311578  0.99111777  0.30569588  1
  I  I102  1  0.02668115  0.50449940  0.72190534  1
  I  I103  1  0.01569054  0.50657687  0.25815667  1
  I  I104  1  0.48428843  0.98596824  0.72465157  1
  I  I105  1  0.51253200  0.02670133  0.26284799  1
  I  I106  1  0.48545130  0.48397692  0.70490056  1
  I  I107  1  0.52019784  0.48166392  0.24511113  1
  N  N108  1  0.34863974  0.24650300  0.75748269  1
  N  N109  1  0.34555485  0.24284976  0.21537173  1
  N  N110  1  0.25917165  0.64963860  0.75880575  1
  N  N111  1  0.23822125  0.65797738  0.21400994  1
  N  N112  1  0.75169834  0.15302267  0.24015324  1
  N  N113  1  0.76224034  0.16023337  0.78700615  1
  N  N114  1  0.84800563  0.74581447  0.24027703  1
  N  N115  1  0.83808055  0.76333106  0.78648118  1
