# generated using pymatgen
data_H13PbC8I4N2F
_symmetry_space_group_name_H-M   'P 1'
_cell_length_a   12.56333243
_cell_length_b   12.81704685
_cell_length_c   12.27365992
_cell_angle_alpha   90.78962265
_cell_angle_beta   89.83171463
_cell_angle_gamma   88.54814453
_symmetry_Int_Tables_number   1
_chemical_formula_structural   H13PbC8I4N2F
_chemical_formula_sum   'H52 Pb4 C32 I16 N8 F4'
_cell_volume   1975.53110890
_cell_formula_units_Z   4
loop_
 _symmetry_equiv_pos_site_id
 _symmetry_equiv_pos_as_xyz
  1  'x, y, z'
loop_
 _atom_site_type_symbol
 _atom_site_label
 _atom_site_symmetry_multiplicity
 _atom_site_fract_x
 _atom_site_fract_y
 _atom_site_fract_z
 _atom_site_occupancy
  H  H0  1  0.34013412  0.35055574  0.77136352  1
  H  H1  1  0.24768659  0.31696045  0.86523796  1
  H  H2  1  0.31234050  0.22493010  0.79361779  1
  H  H3  1  0.12334104  0.26652681  0.74235874  1
  H  H4  1  0.16938826  0.38951883  0.70050310  1
  H  H5  1  0.21174519  0.10065408  0.65216521  1
  H  H6  1  0.24791115  0.02236566  0.46763055  1
  H  H7  1  0.36316976  0.34762620  0.28908716  1
  H  H8  1  0.25640021  0.43223573  0.32938297  1
  H  H9  1  0.23643893  0.24888940  0.18035352  1
  H  H10  1  0.24271794  0.37439573  0.14507982  1
  H  H11  1  0.13854144  0.33541177  0.21518813  1
  H  H12  1  0.22884169  0.40896569  0.51742441  1
  H  H13  1  0.34563229  0.64800972  0.77007054  1
  H  H14  1  0.31749460  0.73600745  0.86937706  1
  H  H15  1  0.21895212  0.68429290  0.79498220  1
  H  H16  1  0.26857983  0.86874348  0.75288692  1
  H  H17  1  0.39334218  0.81586372  0.70901436  1
  H  H18  1  0.09898177  0.79156420  0.65932444  1
  H  H19  1  0.02138278  0.75918203  0.47485984  1
  H  H20  1  0.35973423  0.64460765  0.28926652  1
  H  H21  1  0.44068421  0.74858177  0.33227807  1
  H  H22  1  0.25360412  0.76995451  0.18603512  1
  H  H23  1  0.38098297  0.76434650  0.14813449  1
  H  H24  1  0.33627106  0.86591612  0.22107336  1
  H  H25  1  0.41478684  0.77009707  0.52107691  1
  H  H26  1  0.64707557  0.12818231  0.24411016  1
  H  H27  1  0.66817983  0.20374430  0.13741956  1
  H  H28  1  0.77210539  0.15623699  0.20792145  1
  H  H29  1  0.72611670  0.34641568  0.24201279  1
  H  H30  1  0.60318713  0.30477156  0.29379871  1
  H  H31  1  0.89904032  0.27278417  0.33578077  1
  H  H32  1  0.98134975  0.24629744  0.51868624  1
  H  H33  1  0.64246645  0.13441757  0.69729097  1
  H  H34  1  0.56467370  0.24726821  0.66808521  1
  H  H35  1  0.74221483  0.22604801  0.82582494  1
  H  H36  1  0.61456242  0.25152801  0.84977598  1
  H  H37  1  0.68784325  0.34316413  0.79366382  1
  H  H38  1  0.58689713  0.26146262  0.48115237  1
  H  H39  1  0.86436094  0.63272073  0.24014155  1
  H  H40  1  0.77967762  0.65436899  0.13814675  1
  H  H41  1  0.83200160  0.75528134  0.20133060  1
  H  H42  1  0.64305632  0.72328623  0.24955526  1
  H  H43  1  0.68684556  0.60063906  0.29925434  1
  H  H44  1  0.73149370  0.88915226  0.33893892  1
  H  H45  1  0.76594276  0.97014971  0.52077174  1
  H  H46  1  0.86656191  0.63196020  0.70525762  1
  H  H47  1  0.74658465  0.56696111  0.67478273  1
  H  H48  1  0.77577102  0.74598697  0.82723514  1
  H  H49  1  0.74081472  0.62458183  0.85474142  1
  H  H50  1  0.65497905  0.70470976  0.79191083  1
  H  H51  1  0.73478459  0.58480467  0.48482820  1
  Pb  Pb52  1  1.00404187  0.99750469  0.00785687  1
  Pb  Pb53  1  0.01300457  0.50736705  0.00023024  1
  Pb  Pb54  1  0.51443899  0.98867771  0.00134101  1
  Pb  Pb55  1  0.49927471  0.49066152  0.99577746  1
  C  C56  1  0.19090357  0.30630089  0.70582017  1
  C  C57  1  0.22030747  0.25986339  0.59697715  1
  C  C58  1  0.22641261  0.15115707  0.58302000  1
  C  C59  1  0.24504602  0.10657128  0.48043133  1
  C  C60  1  0.25800270  0.17268520  0.39326792  1
  C  C61  1  0.25377149  0.28144731  0.40320200  1
  C  C62  1  0.27793461  0.35072724  0.30959816  1
  C  C63  1  0.23417176  0.32418603  0.50712241  1
  C  C64  1  0.30813216  0.80048935  0.71362843  1
  C  C65  1  0.26210131  0.77903182  0.60310746  1
  C  C66  1  0.15132608  0.77727734  0.58945822  1
  C  C67  1  0.10714255  0.76059159  0.48697823  1
  C  C68  1  0.17556886  0.74642061  0.39896873  1
  C  C69  1  0.28627480  0.74989392  0.40765254  1
  C  C70  1  0.35877866  0.72770668  0.31261252  1
  C  C71  1  0.32845951  0.76646871  0.51192944  1
  C  C72  1  0.68791658  0.28370279  0.28665787  1
  C  C73  1  0.73751848  0.26802631  0.39636071  1
  C  C74  1  0.84852943  0.26417993  0.40720678  1
  C  C75  1  0.89525180  0.25053670  0.50888994  1
  C  C76  1  0.82928179  0.24037070  0.59876077  1
  C  C77  1  0.71820207  0.24363208  0.59215952  1
  C  C78  1  0.64600518  0.21926263  0.68515205  1
  C  C79  1  0.67355783  0.25842011  0.48882438  1
  C  C80  1  0.70873632  0.68232399  0.29135087  1
  C  C81  1  0.73216869  0.73132974  0.39985023  1
  C  C82  1  0.74060633  0.83980304  0.41008738  1
  C  C83  1  0.75903678  0.88605020  0.51128387  1
  C  C84  1  0.76927704  0.82222246  0.60124333  1
  C  C85  1  0.76085953  0.71369554  0.59525978  1
  C  C86  1  0.78052240  0.64372695  0.69043357  1
  C  C87  1  0.74180125  0.66939936  0.49239223  1
  I  I88  1  0.26731796  0.94754217  0.00423280  1
  I  I89  1  0.25538191  0.55942206  0.04254252  1
  I  I90  1  0.76258796  0.06664727  0.96558653  1
  I  I91  1  0.75557731  0.46352284  0.97740488  1
  I  I92  1  0.06895192  0.26794937  0.98241723  1
  I  I93  1  0.93558420  0.76218781  0.98965809  1
  I  I94  1  0.46088849  0.24426023  0.00767755  1
  I  I95  1  0.54641578  0.73791046  0.00594066  1
  I  I96  1  0.03804112  0.99887404  0.75731738  1
  I  I97  1  0.94713555  0.01640042  0.26584963  1
  I  I98  1  0.06204161  0.56140393  0.75437293  1
  I  I99  1  0.99108212  0.48441101  0.26781434  1
  I  I100  1  0.50264969  0.99391890  0.74984846  1
  I  I101  1  0.51624852  0.98814053  0.27358381  1
  I  I102  1  0.47967166  0.49185431  0.71981055  1
  I  I103  1  0.51043707  0.49428908  0.24404177  1
  N  N104  1  0.27929009  0.29911046  0.78858203  1
  N  N105  1  0.22044736  0.32431120  0.20651907  1
  N  N106  1  0.29653437  0.71174515  0.79186622  1
  N  N107  1  0.32957457  0.78583804  0.21156998  1
  N  N108  1  0.69519556  0.18775903  0.21506278  1
  N  N109  1  0.67541822  0.26388830  0.79401281  1
  N  N110  1  0.80170270  0.68224127  0.21406039  1
  N  N111  1  0.73440731  0.68321008  0.79656476  1
  F  F112  1  0.27512236  0.13002197  0.29140893  1
  F  F113  1  0.13294305  0.72864210  0.29758409  1
  F  F114  1  0.87477325  0.22658894  0.69896248  1
  F  F115  1  0.78836552  0.86724421  0.70062301  1
