# generated using pymatgen
data_H13PbC8I4N2F
_symmetry_space_group_name_H-M   'P 1'
_cell_length_a   12.66600543
_cell_length_b   12.57479520
_cell_length_c   12.42534673
_cell_angle_alpha   90.36020657
_cell_angle_beta   90.16297985
_cell_angle_gamma   90.13568319
_symmetry_Int_Tables_number   1
_chemical_formula_structural   H13PbC8I4N2F
_chemical_formula_sum   'H52 Pb4 C32 I16 N8 F4'
_cell_volume   1978.96234734
_cell_formula_units_Z   4
loop_
 _symmetry_equiv_pos_site_id
 _symmetry_equiv_pos_as_xyz
  1  'x, y, z'
loop_
 _atom_site_type_symbol
 _atom_site_label
 _atom_site_symmetry_multiplicity
 _atom_site_fract_x
 _atom_site_fract_y
 _atom_site_fract_z
 _atom_site_occupancy
  H  H0  1  0.21590184  0.24081315  0.81275853  1
  H  H1  1  0.26591900  0.12399565  0.84548956  1
  H  H2  1  0.16348730  0.12941392  0.75926981  1
  H  H3  1  0.32841702  0.08720909  0.67065876  1
  H  H4  1  0.38395866  0.20474180  0.72574836  1
  H  H5  1  0.30516495  0.38538898  0.66387610  1
  H  H6  1  0.25861770  0.48318372  0.49688421  1
  H  H7  1  0.20941412  0.38331043  0.33121335  1
  H  H8  1  0.17400952  0.08637612  0.32461678  1
  H  H9  1  0.12675502  0.20485455  0.26575261  1
  H  H10  1  0.30377301  0.23282237  0.18934752  1
  H  H11  1  0.25053373  0.11780785  0.15363812  1
  H  H12  1  0.34645131  0.12008727  0.24634745  1
  H  H13  1  0.23851322  0.78503742  0.81378875  1
  H  H14  1  0.12168868  0.73544040  0.84501995  1
  H  H15  1  0.12903020  0.83796654  0.75924833  1
  H  H16  1  0.08724699  0.67028740  0.67024558  1
  H  H17  1  0.20406975  0.61601129  0.72535081  1
  H  H18  1  0.38324729  0.69474666  0.66363996  1
  H  H19  1  0.48089921  0.74114636  0.49690664  1
  H  H20  1  0.38249548  0.79043011  0.33164786  1
  H  H21  1  0.08795838  0.82732509  0.32643194  1
  H  H22  1  0.20588345  0.87439220  0.26733928  1
  H  H23  1  0.23139178  0.69642060  0.18801884  1
  H  H24  1  0.11720470  0.75026864  0.15485952  1
  H  H25  1  0.11994466  0.65333728  0.24636446  1
  H  H26  1  0.76749898  0.30284855  0.18981023  1
  H  H27  1  0.88099617  0.24827856  0.15493761  1
  H  H28  1  0.88007878  0.34566383  0.24728113  1
  H  H29  1  0.91197047  0.17270281  0.32668568  1
  H  H30  1  0.79413435  0.12476344  0.26679280  1
  H  H31  1  0.61734636  0.20864955  0.33030426  1
  H  H32  1  0.51860003  0.25801275  0.49535773  1
  H  H33  1  0.61606356  0.30500344  0.66331483  1
  H  H34  1  0.91200302  0.33018346  0.67172030  1
  H  H35  1  0.79550732  0.38482372  0.72702306  1
  H  H36  1  0.76149799  0.21459904  0.81284402  1
  H  H37  1  0.87707483  0.26659139  0.84601960  1
  H  H38  1  0.87221307  0.16346267  0.75918784  1
  H  H39  1  0.69661141  0.76749454  0.18874712  1
  H  H40  1  0.75055383  0.88245173  0.15583394  1
  H  H41  1  0.65406500  0.87994895  0.24736033  1
  H  H42  1  0.82677368  0.91269793  0.32759643  1
  H  H43  1  0.87333049  0.79387150  0.26771544  1
  H  H44  1  0.79065831  0.61596348  0.33109905  1
  H  H45  1  0.74163624  0.51698950  0.49586456  1
  H  H46  1  0.69499751  0.61569903  0.66320140  1
  H  H47  1  0.67150393  0.91389744  0.67222081  1
  H  H48  1  0.61647133  0.79640536  0.72616310  1
  H  H49  1  0.78435601  0.76096105  0.81358566  1
  H  H50  1  0.73546346  0.87828772  0.84676281  1
  H  H51  1  0.83726074  0.87156532  0.76053139  1
  Pb  Pb52  1  0.00245503  0.00268682  0.97602375  1
  Pb  Pb53  1  0.99147402  0.49905076  0.01692215  1
  Pb  Pb54  1  0.50187897  0.99948755  0.01575580  1
  Pb  Pb55  1  0.48917805  0.50319283  0.01260158  1
  C  C56  1  0.31189146  0.17019348  0.69090099  1
  C  C57  1  0.27660534  0.23053103  0.59419924  1
  C  C58  1  0.27974324  0.34196745  0.59186666  1
  C  C59  1  0.25573156  0.39668192  0.49785647  1
  C  C60  1  0.22991129  0.34055859  0.40442548  1
  C  C61  1  0.22773284  0.22920914  0.40312132  1
  C  C62  1  0.19525061  0.16821909  0.30480044  1
  C  C63  1  0.25047354  0.17675881  0.49911392  1
  C  C64  1  0.16943016  0.68798336  0.69073061  1
  C  C65  1  0.22974993  0.72347349  0.59429886  1
  C  C66  1  0.34037508  0.72023858  0.59185459  1
  C  C67  1  0.39505283  0.74415921  0.49799989  1
  C  C68  1  0.33973842  0.77005528  0.40472833  1
  C  C69  1  0.22924580  0.77244350  0.40360829  1
  C  C70  1  0.16893809  0.80554077  0.30588422  1
  C  C71  1  0.17680999  0.74971031  0.49941555  1
  C  C72  1  0.83086470  0.19400746  0.30592207  1
  C  C73  1  0.77046313  0.22737577  0.40352128  1
  C  C74  1  0.65996286  0.22940283  0.40389328  1
  C  C75  1  0.60445070  0.25528520  0.49700299  1
  C  C76  1  0.65898613  0.27949601  0.59151775  1
  C  C77  1  0.76958583  0.27676558  0.59467371  1
  C  C78  1  0.82987733  0.31266379  0.69171498  1
  C  C79  1  0.82276654  0.25057362  0.49989645  1
  C  C80  1  0.80497169  0.83102320  0.30654825  1
  C  C81  1  0.77196581  0.77041522  0.40392082  1
  C  C82  1  0.77005439  0.65911213  0.40444964  1
  C  C83  1  0.74442003  0.60348979  0.49741072  1
  C  C84  1  0.72044448  0.65878571  0.59164644  1
  C  C85  1  0.72333501  0.77024959  0.59472216  1
  C  C86  1  0.68831186  0.83103553  0.69180429  1
  C  C87  1  0.74911195  0.82347256  0.50007407  1
  I  I88  1  0.24741860  0.94017857  0.00141900  1
  I  I89  1  0.24956708  0.58237765  0.99774880  1
  I  I90  1  0.75211521  0.06124386  0.00051303  1
  I  I91  1  0.75448442  0.42170439  0.99643842  1
  I  I92  1  0.06437431  0.24761792  0.00389670  1
  I  I93  1  0.94014809  0.75107884  0.99821105  1
  I  I94  1  0.42156586  0.24850497  0.99761325  1
  I  I95  1  0.57992447  0.75299075  0.99767588  1
  I  I96  1  0.99991059  0.00029538  0.70096497  1
  I  I97  1  0.99865869  0.99851621  0.21449614  1
  I  I98  1  0.01306082  0.48922390  0.77556187  1
  I  I99  1  0.99962100  0.49943514  0.28910210  1
  I  I100  1  0.49524295  0.99564104  0.77362314  1
  I  I101  1  0.49943201  0.99903823  0.28736338  1
  I  I102  1  0.50253512  0.49991975  0.75269816  1
  I  I103  1  0.50088949  0.49985782  0.26388861  1
  N  N104  1  0.23357376  0.16661145  0.78207734  1
  N  N105  1  0.27895523  0.16041945  0.21944999  1
  N  N106  1  0.16514920  0.76737372  0.78213022  1
  N  N107  1  0.15997878  0.72142689  0.21969918  1
  N  N108  1  0.83922930  0.27766380  0.22029694  1
  N  N109  1  0.83473455  0.23349633  0.78232401  1
  N  N110  1  0.72166406  0.83960397  0.22051550  1
  N  N111  1  0.76703747  0.83496906  0.78306668  1
  F  F112  1  0.24784573  0.06774248  0.49959886  1
  F  F113  1  0.06860890  0.75241790  0.50004506  1
  F  F114  1  0.93095353  0.24826756  0.50116717  1
  F  F115  1  0.75140525  0.93248837  0.50116328  1
