# generated using pymatgen
data_H12PbC6(IN)4
_symmetry_space_group_name_H-M   'P 1'
_cell_length_a   12.30826836
_cell_length_b   12.31244369
_cell_length_c   11.97331227
_cell_angle_alpha   89.99579088
_cell_angle_beta   89.99520357
_cell_angle_gamma   89.99609571
_symmetry_Int_Tables_number   1
_chemical_formula_structural   H12PbC6(IN)4
_chemical_formula_sum   'H48 Pb4 C24 I16 N16'
_cell_volume   1814.49392927
_cell_formula_units_Z   4
loop_
 _symmetry_equiv_pos_site_id
 _symmetry_equiv_pos_as_xyz
  1  'x, y, z'
loop_
 _atom_site_type_symbol
 _atom_site_label
 _atom_site_symmetry_multiplicity
 _atom_site_fract_x
 _atom_site_fract_y
 _atom_site_fract_z
 _atom_site_occupancy
  H  H0  1  0.17403798  0.40484254  0.74848229  1
  H  H1  1  0.31070105  0.41059084  0.74327889  1
  H  H2  1  0.24744947  0.36938492  0.86063649  1
  H  H3  1  0.32320570  0.21385204  0.77119217  1
  H  H4  1  0.17931523  0.20863310  0.77181621  1
  H  H5  1  0.24461295  0.06874202  0.60643049  1
  H  H6  1  0.24195023  0.06874739  0.39384516  1
  H  H7  1  0.31290360  0.20914907  0.22631677  1
  H  H8  1  0.16909738  0.21295705  0.23117080  1
  H  H9  1  0.17653040  0.40858230  0.25399004  1
  H  H10  1  0.31346685  0.40695442  0.25348194  1
  H  H11  1  0.24338282  0.36878665  0.13914989  1
  H  H12  1  0.40489075  0.82585592  0.74824025  1
  H  H13  1  0.41071327  0.68922670  0.74341104  1
  H  H14  1  0.36942717  0.75277252  0.86058519  1
  H  H15  1  0.21395497  0.67664290  0.77116162  1
  H  H16  1  0.20856621  0.82046633  0.77176981  1
  H  H17  1  0.06869502  0.75534779  0.60641165  1
  H  H18  1  0.06868721  0.75801271  0.39382614  1
  H  H19  1  0.20917222  0.68699122  0.22629731  1
  H  H20  1  0.21290935  0.83073903  0.23115531  1
  H  H21  1  0.40862230  0.82331724  0.25412702  1
  H  H22  1  0.40702534  0.68642816  0.25334942  1
  H  H23  1  0.36882266  0.75675215  0.13914980  1
  H  H24  1  0.59305847  0.31350624  0.25317251  1
  H  H25  1  0.59132658  0.17662089  0.25420384  1
  H  H26  1  0.63131962  0.24295578  0.13912896  1
  H  H27  1  0.78708191  0.16903444  0.23119521  1
  H  H28  1  0.79089727  0.31277774  0.22628023  1
  H  H29  1  0.93133111  0.24201253  0.39382312  1
  H  H30  1  0.93134445  0.24469558  0.60639225  1
  H  H31  1  0.79143632  0.17926517  0.77178887  1
  H  H32  1  0.78620403  0.32309930  0.77122919  1
  H  H33  1  0.58942144  0.31076268  0.74364772  1
  H  H34  1  0.59508433  0.17411942  0.74833299  1
  H  H35  1  0.63074216  0.24704409  0.86072641  1
  H  H36  1  0.68629878  0.59308615  0.25303677  1
  H  H37  1  0.82323424  0.59137340  0.25434581  1
  H  H38  1  0.75715924  0.63137286  0.13912840  1
  H  H39  1  0.83078031  0.78706506  0.23117110  1
  H  H40  1  0.68699176  0.79082802  0.22627572  1
  H  H41  1  0.75792323  0.93121735  0.39381032  1
  H  H42  1  0.75525497  0.93120068  0.60640306  1
  H  H43  1  0.82055896  0.79135582  0.77174398  1
  H  H44  1  0.67668752  0.78604292  0.77121369  1
  H  H45  1  0.68907213  0.58937205  0.74374525  1
  H  H46  1  0.82577837  0.59505367  0.74806235  1
  H  H47  1  0.75314169  0.63071937  0.86065357  1
  Pb  Pb48  1  0.00194546  0.00193025  0.99982341  1
  Pb  Pb49  1  0.99984239  0.50185720  0.00036825  1
  Pb  Pb50  1  0.50013726  0.00063014  0.00042140  1
  Pb  Pb51  1  0.50074820  0.50011198  0.99961308  1
  C  C52  1  0.24968061  0.25141758  0.73599753  1
  C  C53  1  0.24952907  0.24503258  0.61089215  1
  C  C54  1  0.24657047  0.14343154  0.55763094  1
  C  C55  1  0.24518517  0.14342849  0.44256521  1
  C  C56  1  0.24684378  0.24503016  0.38920211  1
  C  C57  1  0.24325152  0.25132764  0.26415765  1
  C  C58  1  0.25144913  0.75017811  0.73595576  1
  C  C59  1  0.24505343  0.75036560  0.61084454  1
  C  C60  1  0.14339559  0.75335696  0.55761826  1
  C  C61  1  0.14339454  0.75474522  0.44253550  1
  C  C62  1  0.24502970  0.75305238  0.38918714  1
  C  C63  1  0.25133337  0.75662288  0.26414629  1
  C  C64  1  0.74869665  0.24318179  0.26415778  1
  C  C65  1  0.75497718  0.24681671  0.38922122  1
  C  C66  1  0.85663011  0.24522013  0.44253571  1
  C  C67  1  0.85662976  0.24661612  0.55763255  1
  C  C68  1  0.75498431  0.24951179  0.61089183  1
  C  C69  1  0.74861990  0.24962058  0.73601271  1
  C  C70  1  0.75662966  0.74866777  0.26415344  1
  C  C71  1  0.75303210  0.75493885  0.38919651  1
  C  C72  1  0.75467862  0.85654109  0.44253101  1
  C  C73  1  0.75328996  0.85653412  0.55761738  1
  C  C74  1  0.75035137  0.75490497  0.61085358  1
  C  C75  1  0.75021332  0.74852353  0.73597016  1
  I  I76  1  0.25359853  0.92393891  0.99868483  1
  I  I77  1  0.25260856  0.57285559  0.00100356  1
  I  I78  1  0.74608493  0.07412247  0.99882429  1
  I  I79  1  0.74776445  0.42609967  0.00101392  1
  I  I80  1  0.07437137  0.25412700  0.99876376  1
  I  I81  1  0.92407727  0.74639949  0.99882175  1
  I  I82  1  0.42640236  0.25272947  0.00099528  1
  I  I83  1  0.57284895  0.74779478  0.00098460  1
  I  I84  1  0.99985622  1.00004851  0.73166617  1
  I  I85  1  0.00027417  1.00010208  0.26937857  1
  I  I86  1  0.00003406  0.50009664  0.72706810  1
  I  I87  1  0.00003785  0.50015710  0.27337640  1
  I  I88  1  0.49978610  0.00013810  0.72714508  1
  I  I89  1  0.49961437  0.00019252  0.27342182  1
  I  I90  1  0.50013355  0.49996057  0.72516641  1
  I  I91  1  0.50004743  0.49997002  0.27402041  1
  N  N92  1  0.24558761  0.36607016  0.77446937  1
  N  N93  1  0.24479478  0.36592664  0.22536305  1
  N  N94  1  0.25075946  0.33947748  0.44417960  1
  N  N95  1  0.25208703  0.33947060  0.55579165  1
  N  N96  1  0.36613920  0.75438138  0.77440735  1
  N  N97  1  0.36597514  0.75513335  0.22536341  1
  N  N98  1  0.33951300  0.74916915  0.44414085  1
  N  N99  1  0.33950881  0.74784198  0.55576937  1
  N  N100  1  0.63406840  0.24471619  0.22533782  1
  N  N101  1  0.63394048  0.24551690  0.77454832  1
  N  N102  1  0.66052099  0.25201438  0.55583183  1
  N  N103  1  0.66051214  0.25068565  0.44419006  1
  N  N104  1  0.75516472  0.63408178  0.22533942  1
  N  N105  1  0.75440866  0.63388146  0.77446613  1
  N  N106  1  0.74787178  0.66048396  0.55578657  1
  N  N107  1  0.74919294  0.66048661  0.44416013  1
