# generated using pymatgen
data_H15PbC8I4N3
_symmetry_space_group_name_H-M   'P 1'
_cell_length_a   12.86494398
_cell_length_b   12.43076032
_cell_length_c   12.55743097
_cell_angle_alpha   90.16140785
_cell_angle_beta   91.65061310
_cell_angle_gamma   90.22493893
_symmetry_Int_Tables_number   1
_chemical_formula_structural   H15PbC8I4N3
_chemical_formula_sum   'H60 Pb4 C32 I16 N12'
_cell_volume   2007.33998298
_cell_formula_units_Z   4
loop_
 _symmetry_equiv_pos_site_id
 _symmetry_equiv_pos_as_xyz
  1  'x, y, z'
loop_
 _atom_site_type_symbol
 _atom_site_label
 _atom_site_symmetry_multiplicity
 _atom_site_fract_x
 _atom_site_fract_y
 _atom_site_fract_z
 _atom_site_occupancy
  H  H0  1  0.37093513  0.11440627  0.68574704  1
  H  H1  1  0.38001203  0.16782497  0.81581339  1
  H  H2  1  0.40367945  0.25273197  0.70415802  1
  H  H3  1  0.19334164  0.14781378  0.75620145  1
  H  H4  1  0.25580502  0.37831679  0.75761562  1
  H  H5  1  0.24976060  0.30329157  0.86784595  1
  H  H6  1  0.14185093  0.32723522  0.79703423  1
  H  H7  1  0.20438112  0.06779006  0.56581275  1
  H  H8  1  0.17866283  0.10978940  0.37260256  1
  H  H9  1  0.09325807  0.26890430  0.25008421  1
  H  H10  1  0.14918153  0.39819445  0.27394142  1
  H  H11  1  0.23411255  0.31127045  0.13710297  1
  H  H12  1  0.25893598  0.19896495  0.20852686  1
  H  H13  1  0.31930114  0.31793519  0.23909649  1
  H  H14  1  0.18575027  0.44723676  0.45596546  1
  H  H15  1  0.10308427  0.62736490  0.67560699  1
  H  H16  1  0.15746963  0.61529436  0.80573527  1
  H  H17  1  0.23448005  0.58510081  0.69284395  1
  H  H18  1  0.14847824  0.80894444  0.75007010  1
  H  H19  1  0.36851523  0.75996359  0.73736124  1
  H  H20  1  0.30974237  0.71993773  0.84948752  1
  H  H21  1  0.31034105  0.85032729  0.81835358  1
  H  H22  1  0.07116732  0.80039815  0.55411291  1
  H  H23  1  0.11594856  0.82662004  0.36289138  1
  H  H24  1  0.27642419  0.90751822  0.25216694  1
  H  H25  1  0.39865251  0.84566991  0.28003887  1
  H  H26  1  0.32028275  0.76157167  0.13400283  1
  H  H27  1  0.20609119  0.74005571  0.19063304  1
  H  H28  1  0.31436725  0.67148483  0.23070284  1
  H  H29  1  0.43971554  0.80201311  0.46034627  1
  H  H30  1  0.89345034  0.11843583  0.31581833  1
  H  H31  1  0.83977781  0.11381540  0.18496223  1
  H  H32  1  0.76028984  0.08053016  0.29443320  1
  H  H33  1  0.85165601  0.30564141  0.24965793  1
  H  H34  1  0.63203802  0.22859290  0.24568239  1
  H  H35  1  0.70078464  0.24783157  0.13618634  1
  H  H36  1  0.67330514  0.35186974  0.21415910  1
  H  H37  1  0.93195348  0.27976927  0.44685931  1
  H  H38  1  0.88839965  0.30601942  0.63727540  1
  H  H39  1  0.73235494  0.39806232  0.75069054  1
  H  H40  1  0.60741325  0.34067263  0.72223827  1
  H  H41  1  0.68960374  0.24911673  0.86331900  1
  H  H42  1  0.79829065  0.22280526  0.79606987  1
  H  H43  1  0.68405234  0.16225743  0.76268927  1
  H  H44  1  0.56420102  0.31374074  0.53776947  1
  H  H45  1  0.87601943  0.90167264  0.31993140  1
  H  H46  1  0.88252626  0.84555985  0.19075494  1
  H  H47  1  0.91270581  0.76438540  0.30468227  1
  H  H48  1  0.69704530  0.85829909  0.24620525  1
  H  H49  1  0.77514876  0.63282667  0.24221791  1
  H  H50  1  0.74899411  0.70974950  0.13508168  1
  H  H51  1  0.65286014  0.67118785  0.21221798  1
  H  H52  1  0.71455124  0.93871310  0.44000674  1
  H  H53  1  0.68852615  0.89388332  0.63067822  1
  H  H54  1  0.59701370  0.73474268  0.74237824  1
  H  H55  1  0.64983953  0.60477427  0.72176879  1
  H  H56  1  0.73412190  0.68664702  0.86781922  1
  H  H57  1  0.76581307  0.79865085  0.80222320  1
  H  H58  1  0.82063142  0.67677287  0.77299188  1
  H  H59  1  0.69177686  0.55765200  0.54224278  1
  Pb  Pb60  1  1.00239472  -0.00142449  0.96794140  1
  Pb  Pb61  1  0.96952601  0.50934360  0.01104988  1
  Pb  Pb62  1  0.51177489  0.00594797  0.01088804  1
  Pb  Pb63  1  0.46954682  0.50116173  0.00767372  1
  C  C64  1  0.35596857  0.18621258  0.73351769  1
  C  C65  1  0.24093968  0.21371877  0.72486866  1
  C  C66  1  0.21159866  0.23661184  0.61009298  1
  C  C67  1  0.20150163  0.15089210  0.53818871  1
  C  C68  1  0.18758827  0.17464491  0.43103116  1
  C  C69  1  0.18189817  0.28239339  0.39846201  1
  C  C70  1  0.16166222  0.31155792  0.28377391  1
  C  C71  1  0.19096645  0.36211442  0.47710827  1
  C  C72  1  0.17456048  0.63848448  0.72374768  1
  C  C73  1  0.20870967  0.75573385  0.71887430  1
  C  C74  1  0.23261062  0.78435078  0.60484721  1
  C  C75  1  0.15172733  0.79922134  0.52952366  1
  C  C76  1  0.17696286  0.81308963  0.42352616  1
  C  C77  1  0.28190951  0.81313064  0.39573140  1
  C  C78  1  0.31429102  0.83456927  0.28385591  1
  C  C79  1  0.35693606  0.79984031  0.47754235  1
  C  C80  1  0.82264516  0.13387755  0.26777908  1
  C  C81  1  0.79137248  0.25136615  0.27976434  1
  C  C82  1  0.76970528  0.27846539  0.39453216  1
  C  C83  1  0.85125819  0.28540829  0.47033303  1
  C  C84  1  0.82665672  0.29983846  0.57629914  1
  C  C85  1  0.72197105  0.30887972  0.60352220  1
  C  C86  1  0.69136174  0.32756691  0.71631939  1
  C  C87  1  0.64665282  0.30431121  0.52114321  1
  C  C88  1  0.86194663  0.82831703  0.27313141  1
  C  C89  1  0.74799365  0.79506091  0.27968883  1
  C  C90  1  0.72088704  0.77065089  0.39337746  1
  C  C91  1  0.71133736  0.85513633  0.46602339  1
  C  C92  1  0.69675494  0.82980712  0.57205506  1
  C  C93  1  0.68909931  0.72165925  0.60239097  1
  C  C94  1  0.66536488  0.69119712  0.71479354  1
  C  C95  1  0.69796301  0.64320810  0.52306829  1
  I  I96  1  0.27078298  1.00266316  0.95420934  1
  I  I97  1  0.22718629  0.48963539  0.01970206  1
  I  I98  1  0.76546251  0.94882412  0.00643254  1
  I  I99  1  0.72283446  0.51311627  1.00065607  1
  I  I100  1  0.00348271  0.25623998  0.98612585  1
  I  I101  1  0.04819040  0.75014940  0.99543629  1
  I  I102  1  0.53160247  0.25566495  0.98601428  1
  I  I103  1  0.49451103  0.75181602  0.03129081  1
  I  I104  1  0.97738313  0.01031556  0.71659054  1
  I  I105  1  0.08379369  0.01243985  0.21171640  1
  I  I106  1  0.92911543  0.50889036  0.75449920  1
  I  I107  1  0.95035576  0.52183775  0.26496293  1
  I  I108  1  0.55679483  0.99060958  0.76102561  1
  I  I109  1  0.51270326  0.05590361  0.26471287  1
  I  I110  1  0.44072309  0.50392364  0.75514905  1
  I  I111  1  0.45465117  0.49707872  0.26749386  1
  N  N112  1  0.22025922  0.31170739  0.79123526  1
  N  N113  1  0.25010444  0.28141503  0.21321524  1
  N  N114  1  0.20609305  0.34006732  0.58095531  1
  N  N115  1  0.30587532  0.77268181  0.78659084  1
  N  N116  1  0.28525222  0.74571955  0.20612809  1
  N  N117  1  0.33312046  0.78513336  0.57977430  1
  N  N118  1  0.69405458  0.27187699  0.21425614  1
  N  N119  1  0.71907738  0.23434607  0.78826609  1
  N  N120  1  0.66965040  0.28889604  0.41888920  1
  N  N121  1  0.72945971  0.69617336  0.21293314  1
  N  N122  1  0.75246276  0.71708107  0.79367822  1
  N  N123  1  0.71414717  0.66675253  0.42068064  1
