# generated using pymatgen
data_H12PbC7I4N3F
_symmetry_space_group_name_H-M   'P 1'
_cell_length_a   12.30163501
_cell_length_b   12.24587937
_cell_length_c   12.48665709
_cell_angle_alpha   90.20219071
_cell_angle_beta   89.54436716
_cell_angle_gamma   89.48340885
_symmetry_Int_Tables_number   1
_chemical_formula_structural   H12PbC7I4N3F
_chemical_formula_sum   'H48 Pb4 C28 I16 N12 F4'
_cell_volume   1880.89606895
_cell_formula_units_Z   4
loop_
 _symmetry_equiv_pos_site_id
 _symmetry_equiv_pos_as_xyz
  1  'x, y, z'
loop_
 _atom_site_type_symbol
 _atom_site_label
 _atom_site_symmetry_multiplicity
 _atom_site_fract_x
 _atom_site_fract_y
 _atom_site_fract_z
 _atom_site_occupancy
  H  H0  1  0.28499342  0.18938727  0.86495193  1
  H  H1  1  0.18746706  0.14620387  0.78031035  1
  H  H2  1  0.32012064  0.12429101  0.75168298  1
  H  H3  1  0.35210147  0.32106739  0.74661278  1
  H  H4  1  0.21121698  0.34351150  0.76843948  1
  H  H5  1  0.24892709  0.44884419  0.57920056  1
  H  H6  1  0.21485829  0.41824630  0.38324963  1
  H  H7  1  0.14010598  0.14763894  0.27365914  1
  H  H8  1  0.15000063  0.28981458  0.24525487  1
  H  H9  1  0.34301269  0.26671875  0.21530846  1
  H  H10  1  0.34051582  0.13330935  0.24570428  1
  H  H11  1  0.27515990  0.18049278  0.13866895  1
  H  H12  1  0.19352037  0.72450137  0.86652284  1
  H  H13  1  0.15119072  0.82140197  0.77913919  1
  H  H14  1  0.12709239  0.68895065  0.75520109  1
  H  H15  1  0.32360819  0.64972787  0.74910813  1
  H  H16  1  0.34737550  0.79148022  0.76454675  1
  H  H17  1  0.45102476  0.75060339  0.57684362  1
  H  H18  1  0.42001207  0.78457343  0.38096671  1
  H  H19  1  0.15052753  0.86176344  0.27628364  1
  H  H20  1  0.29184432  0.84994644  0.24564526  1
  H  H21  1  0.26648299  0.65640178  0.21078727  1
  H  H22  1  0.13458543  0.66271002  0.24229796  1
  H  H23  1  0.18328812  0.73183837  0.13716707  1
  H  H24  1  0.80775280  0.21909157  0.13170916  1
  H  H25  1  0.85146365  0.31454737  0.21768724  1
  H  H26  1  0.87280115  0.18079627  0.24337158  1
  H  H27  1  0.67778553  0.14855500  0.25212453  1
  H  H28  1  0.65474306  0.29051384  0.23345391  1
  H  H29  1  0.55170275  0.25754167  0.42216813  1
  H  H30  1  0.58310393  0.29197908  0.61809665  1
  H  H31  1  0.85210773  0.36752440  0.72117271  1
  H  H32  1  0.71178557  0.35510251  0.75397137  1
  H  H33  1  0.74096677  0.16609718  0.79572512  1
  H  H34  1  0.86989466  0.16605018  0.75340326  1
  H  H35  1  0.83117999  0.24114625  0.85963367  1
  H  H36  1  0.77394081  0.81158131  0.13579829  1
  H  H37  1  0.67522160  0.84944826  0.22253996  1
  H  H38  1  0.80582052  0.87633560  0.24994734  1
  H  H39  1  0.85013498  0.68050303  0.25025656  1
  H  H40  1  0.71001798  0.65336226  0.23327333  1
  H  H41  1  0.73960750  0.54834020  0.41863681  1
  H  H42  1  0.70787812  0.57800523  0.61587483  1
  H  H43  1  0.64093094  0.84831498  0.72888893  1
  H  H44  1  0.64849261  0.70555091  0.75492130  1
  H  H45  1  0.84249623  0.72499935  0.78739320  1
  H  H46  1  0.83716315  0.85941334  0.76423665  1
  H  H47  1  0.76615662  0.80534061  0.86675644  1
  Pb  Pb48  1  0.00228043  0.99300133  0.00568404  1
  Pb  Pb49  1  0.01303978  0.49439171  0.99594129  1
  Pb  Pb50  1  0.50009424  0.99274130  0.99263795  1
  Pb  Pb51  1  0.51431940  0.49591694  0.00297139  1
  C  C52  1  0.27077181  0.28756223  0.73092002  1
  C  C53  1  0.25177996  0.27549524  0.61258862  1
  C  C54  1  0.24281482  0.36664323  0.54630217  1
  C  C55  1  0.22442107  0.34945659  0.43764351  1
  C  C56  1  0.21591279  0.24308492  0.39728164  1
  C  C57  1  0.19153944  0.21991932  0.28221368  1
  C  C58  1  0.22857163  0.15952020  0.47229641  1
  C  C59  1  0.29093913  0.73166346  0.73069458  1
  C  C60  1  0.27860140  0.74683212  0.61192630  1
  C  C61  1  0.36916288  0.75558034  0.54459573  1
  C  C62  1  0.35175277  0.77325259  0.43591640  1
  C  C63  1  0.24573570  0.78058519  0.39667389  1
  C  C64  1  0.22244621  0.80838878  0.28261140  1
  C  C65  1  0.16271765  0.76649170  0.47234625  1
  C  C66  1  0.71096846  0.23026428  0.26835552  1
  C  C67  1  0.72400588  0.24812563  0.38687015  1
  C  C68  1  0.63362796  0.26018962  0.45437681  1
  C  C69  1  0.65128052  0.27865887  0.56302694  1
  C  C70  1  0.75743926  0.28418887  0.60217237  1
  C  C71  1  0.78155593  0.31342222  0.71594196  1
  C  C72  1  0.84018815  0.26752646  0.52610863  1
  C  C73  1  0.76748617  0.71089056  0.26901069  1
  C  C74  1  0.75126193  0.72177053  0.38812436  1
  C  C75  1  0.73862160  0.63020335  0.45308476  1
  C  C76  1  0.72214622  0.64678204  0.56245171  1
  C  C77  1  0.71935400  0.75280581  0.60479914  1
  C  C78  1  0.69217616  0.77474965  0.71988628  1
  C  C79  1  0.73654466  0.83675581  0.53099471  1
  I  I80  1  0.25055438  0.92980039  0.00567214  1
  I  I81  1  0.26159674  0.56013265  0.98405701  1
  I  I82  1  0.74970606  0.05099284  0.00014573  1
  I  I83  1  0.76353281  0.42525439  0.00785140  1
  I  I84  1  0.06135415  0.24189579  0.98010466  1
  I  I85  1  0.94887272  0.74404070  0.01950719  1
  I  I86  1  0.44256607  0.24612557  0.99028795  1
  I  I87  1  0.58544206  0.74599675  0.00032135  1
  I  I88  1  1.00239644  0.99117496  0.74115365  1
  I  I89  1  0.96987935  0.00088354  0.26191485  1
  I  I90  1  0.99195263  0.54102280  0.74078483  1
  I  I91  1  0.00838578  0.49290516  0.25626580  1
  I  I92  1  0.49556031  0.01765820  0.73710547  1
  I  I93  1  0.49845590  0.99216995  0.25665381  1
  I  I94  1  0.51276277  0.49824260  0.74598219  1
  I  I95  1  0.46110354  0.47790301  0.25835347  1
  N  N96  1  0.26395175  0.17987614  0.78506877  1
  N  N97  1  0.29329213  0.19860543  0.21746523  1
  N  N98  1  0.24518647  0.17258771  0.57515770  1
  N  N99  1  0.18419133  0.74368036  0.78623207  1
  N  N100  1  0.20029941  0.70906089  0.21512086  1
  N  N101  1  0.17607345  0.75113251  0.57531678  1
  N  N102  1  0.81766184  0.23767242  0.21200798  1
  N  N103  1  0.80752981  0.21555963  0.78412533  1
  N  N104  1  0.82666602  0.25104480  0.42323830  1
  N  N105  1  0.75389732  0.81875491  0.21621034  1
  N  N106  1  0.79081955  0.79252616  0.78801244  1
  N  N107  1  0.75101560  0.82422963  0.42746456  1
  F  F108  1  0.22382160  0.05405252  0.43745969  1
  F  F109  1  0.05786536  0.76901631  0.43830816  1
  F  F110  1  0.94517717  0.26860045  0.56005060  1
  F  F111  1  0.73808311  0.94158206  0.56755653  1
