# generated using pymatgen
data_H18PbC16S2(I2N)2
_symmetry_space_group_name_H-M   'P 1'
_cell_length_a   12.39027382
_cell_length_b   12.49574048
_cell_length_c   19.97843241
_cell_angle_alpha   91.68574927
_cell_angle_beta   91.55240736
_cell_angle_gamma   88.91599356
_symmetry_Int_Tables_number   1
_chemical_formula_structural   H18PbC16S2(I2N)2
_chemical_formula_sum   'H72 Pb4 C64 S8 I16 N8'
_cell_volume   3090.19186346
_cell_formula_units_Z   4
loop_
 _symmetry_equiv_pos_site_id
 _symmetry_equiv_pos_as_xyz
  1  'x, y, z'
loop_
 _atom_site_type_symbol
 _atom_site_label
 _atom_site_symmetry_multiplicity
 _atom_site_fract_x
 _atom_site_fract_y
 _atom_site_fract_z
 _atom_site_occupancy
  H  H0  1  0.23076841  0.26208595  0.91956012  1
  H  H1  1  0.24992148  0.14829618  0.87557030  1
  H  H2  1  0.14925619  0.23209124  0.85441210  1
  H  H3  1  0.28801382  0.37441464  0.84027450  1
  H  H4  1  0.38545265  0.26972941  0.84664645  1
  H  H5  1  0.18520105  0.40321948  0.73714058  1
  H  H6  1  0.15796160  0.36153016  0.61599209  1
  H  H7  1  0.24379638  0.34018344  0.49656225  1
  H  H8  1  0.24886594  0.41464524  0.38758293  1
  H  H9  1  0.23529942  0.44984574  0.25831255  1
  H  H10  1  0.11385416  0.21896407  0.15414931  1
  H  H11  1  0.15928183  0.35309548  0.14859859  1
  H  H12  1  0.33876128  0.28708928  0.13358856  1
  H  H13  1  0.30955167  0.16004646  0.14789063  1
  H  H14  1  0.25686177  0.22021913  0.08045984  1
  H  H15  1  0.19049804  0.02573347  0.40059697  1
  H  H16  1  0.36187134  0.07973511  0.63497263  1
  H  H17  1  0.39017455  0.12181951  0.75571287  1
  H  H18  1  0.23323093  0.75401157  0.91792025  1
  H  H19  1  0.14006590  0.75198122  0.85749429  1
  H  H20  1  0.23279127  0.84786031  0.86142476  1
  H  H21  1  0.37685749  0.71590294  0.83976415  1
  H  H22  1  0.27938590  0.61420555  0.84014999  1
  H  H23  1  0.40499048  0.81403534  0.73674968  1
  H  H24  1  0.35790934  0.84271752  0.61715761  1
  H  H25  1  0.34182460  0.76006275  0.49651412  1
  H  H26  1  0.41846573  0.75586856  0.38764370  1
  H  H27  1  0.45494300  0.76877763  0.25923915  1
  H  H28  1  0.21708730  0.87996892  0.15513904  1
  H  H29  1  0.35288487  0.83268739  0.14863299  1
  H  H30  1  0.29397696  0.65335832  0.13702907  1
  H  H31  1  0.16575055  0.68295775  0.15580646  1
  H  H32  1  0.21290389  0.72688702  0.08527165  1
  H  H33  1  0.02279026  0.80491480  0.40122552  1
  H  H34  1  0.08405839  0.63697785  0.63099912  1
  H  H35  1  0.12993860  0.60936367  0.75037243  1
  H  H36  1  0.75464000  0.25510364  0.07997599  1
  H  H37  1  0.85871461  0.23949900  0.13315667  1
  H  H38  1  0.77265663  0.34334655  0.14210636  1
  H  H39  1  0.62421463  0.21774848  0.15942263  1
  H  H40  1  0.72218972  0.11280375  0.15524233  1
  H  H41  1  0.59710116  0.31860678  0.26378031  1
  H  H42  1  0.64169237  0.34606329  0.38477763  1
  H  H43  1  0.65791677  0.25689577  0.50380832  1
  H  H44  1  0.58152963  0.25727114  0.61390242  1
  H  H45  1  0.54682003  0.27428874  0.74291771  1
  H  H46  1  0.78499434  0.38371775  0.84714708  1
  H  H47  1  0.64859104  0.34428860  0.85278934  1
  H  H48  1  0.70569828  0.16273569  0.86658643  1
  H  H49  1  0.83542756  0.18619914  0.85282401  1
  H  H50  1  0.77715829  0.24178236  0.92031700  1
  H  H51  1  0.97577814  0.30095940  0.60007212  1
  H  H52  1  0.91848447  0.13376411  0.36508243  1
  H  H53  1  0.87406598  0.10597388  0.24460731  1
  H  H54  1  0.71373379  0.74788946  0.08302866  1
  H  H55  1  0.73147736  0.85364083  0.13372190  1
  H  H56  1  0.63998814  0.76209036  0.15016818  1
  H  H57  1  0.78826309  0.62536019  0.16030885  1
  H  H58  1  0.87954778  0.73235758  0.15537820  1
  H  H59  1  0.68483564  0.60046568  0.26251111  1
  H  H60  1  0.65779713  0.64667127  0.38236516  1
  H  H61  1  0.74305955  0.66130944  0.50174155  1
  H  H62  1  0.74811621  0.58297878  0.61095449  1
  H  H63  1  0.73114750  0.54616616  0.73896420  1
  H  H64  1  0.60727375  0.77486057  0.84109095  1
  H  H65  1  0.66579030  0.64442012  0.84861176  1
  H  H66  1  0.83923601  0.72067256  0.86524124  1
  H  H67  1  0.79410909  0.84580128  0.84907755  1
  H  H68  1  0.75205509  0.78556593  0.91671922  1
  H  H69  1  0.69664374  0.97576732  0.59970095  1
  H  H70  1  0.86232578  0.91995146  0.36721299  1
  H  H71  1  0.89138587  0.87275043  0.24773089  1
  Pb  Pb72  1  0.99809423  0.00936793  0.99491417  1
  Pb  Pb73  1  0.99343016  0.51259033  0.00134315  1
  Pb  Pb74  1  0.50242141  0.00529891  0.00050876  1
  Pb  Pb75  1  0.49156363  0.50407019  0.00154037  1
  C  C76  1  0.30340565  0.28950572  0.82831548  1
  C  C77  1  0.28717490  0.26391657  0.75504397  1
  C  C78  1  0.22347443  0.33175658  0.71482612  1
  C  C79  1  0.20818369  0.30842241  0.64668229  1
  C  C80  1  0.25555458  0.21594887  0.61710906  1
  C  C81  1  0.23670949  0.18837972  0.54609886  1
  C  C82  1  0.23194212  0.25414742  0.49177877  1
  C  C83  1  0.21426138  0.19749604  0.42928922  1
  C  C84  1  0.21063297  0.24751232  0.36442754  1
  C  C85  1  0.23013338  0.35306709  0.34957495  1
  C  C86  1  0.22328674  0.37231031  0.28015948  1
  C  C87  1  0.19801427  0.28195252  0.24188869  1
  C  C88  1  0.17935108  0.27384032  0.16829105  1
  C  C89  1  0.20390826  0.08854223  0.43854346  1
  C  C90  1  0.32119647  0.14952457  0.65758676  1
  C  C91  1  0.33699650  0.17327518  0.72553492  1
  C  C92  1  0.29361825  0.69626144  0.82498697  1
  C  C93  1  0.26981139  0.71087027  0.75185501  1
  C  C94  1  0.33442540  0.77520325  0.71362942  1
  C  C95  1  0.30846000  0.79086959  0.64627993  1
  C  C96  1  0.21705801  0.74286674  0.61572663  1
  C  C97  1  0.18782416  0.76128491  0.54549657  1
  C  C98  1  0.25440796  0.76916507  0.49172503  1
  C  C99  1  0.19710169  0.78660781  0.42974956  1
  C  C100  1  0.24836250  0.79201369  0.36526700  1
  C  C101  1  0.35599537  0.77435709  0.35015404  1
  C  C102  1  0.37600895  0.78139881  0.28103942  1
  C  C103  1  0.28446224  0.80529391  0.24315894  1
  C  C104  1  0.27422655  0.81560537  0.16935876  1
  C  C105  1  0.08642794  0.79352413  0.43899789  1
  C  C106  1  0.15373112  0.67693653  0.65425540  1
  C  C107  1  0.18006014  0.66092054  0.72127501  1
  C  C108  1  0.70793299  0.19577367  0.17261026  1
  C  C109  1  0.73346671  0.21174803  0.24588208  1
  C  C110  1  0.66766240  0.27802004  0.28602189  1
  C  C111  1  0.69224319  0.29296847  0.35407514  1
  C  C112  1  0.78355575  0.24249978  0.38339465  1
  C  C113  1  0.81148848  0.26016727  0.45443894  1
  C  C114  1  0.74494132  0.26680942  0.50872820  1
  C  C115  1  0.80220695  0.28301525  0.57126371  1
  C  C116  1  0.75196678  0.28796189  0.63634061  1
  C  C117  1  0.64472441  0.27327472  0.65163124  1
  C  C118  1  0.62579604  0.28157951  0.72115488  1
  C  C119  1  0.71802059  0.30251810  0.75928603  1
  C  C120  1  0.72758277  0.32040221  0.83301950  1
  C  C121  1  0.91249991  0.28990138  0.56191606  1
  C  C122  1  0.84854014  0.17518440  0.34283209  1
  C  C123  1  0.82338994  0.15957013  0.27510440  1
  C  C124  1  0.80049483  0.71009967  0.17342295  1
  C  C125  1  0.78894912  0.73427423  0.24685349  1
  C  C126  1  0.72470068  0.67012818  0.28557519  1
  C  C127  1  0.70957812  0.69584373  0.35298620  1
  C  C128  1  0.75783785  0.78680889  0.38332240  1
  C  C129  1  0.74013641  0.81492690  0.45381525  1
  C  C130  1  0.73287556  0.74786018  0.50710979  1
  C  C131  1  0.71560768  0.80347030  0.56957542  1
  C  C132  1  0.70987674  0.75154672  0.63358826  1
  C  C133  1  0.72816651  0.64482190  0.64837791  1
  C  C134  1  0.71959033  0.62465553  0.71736410  1
  C  C135  1  0.69436974  0.71536036  0.75524537  1
  C  C136  1  0.67734456  0.72391856  0.82838419  1
  C  C137  1  0.70866678  0.91342786  0.56136475  1
  C  C138  1  0.82303714  0.85004728  0.34421230  1
  C  C139  1  0.83893272  0.82378417  0.27701647  1
  S  S140  1  0.18157795  0.17313563  0.29199184  1
  S  S141  1  0.21681089  0.05619973  0.52067021  1
  S  S142  1  0.17329567  0.82053780  0.29335541  1
  S  S143  1  0.05355020  0.77777487  0.52040331  1
  S  S144  1  0.82820799  0.31353551  0.70874658  1
  S  S145  1  0.94527805  0.27540187  0.47983828  1
  S  S146  1  0.67951234  0.82581879  0.70533752  1
  S  S147  1  0.72427306  0.94763555  0.48023583  1
  I  I148  1  0.25252094  1.00198333  0.97141872  1
  I  I149  1  0.24221537  0.46887882  0.98564414  1
  I  I150  1  0.75461401  0.99567034  0.02552942  1
  I  I151  1  0.74564019  0.47661218  0.01452616  1
  I  I152  1  0.00352956  0.25687237  0.00590219  1
  I  I153  1  0.03212680  0.75869833  0.99943476  1
  I  I154  1  0.51194948  0.25187344  0.99488732  1
  I  I155  1  0.53490430  0.75187699  0.99389170  1
  I  I156  1  0.96623657  0.01868221  0.83284468  1
  I  I157  1  0.02332634  0.00660880  0.15393712  1
  I  I158  1  0.96673665  0.53608379  0.84109211  1
  I  I159  1  0.02448284  0.53245444  0.16213322  1
  I  I160  1  0.54826979  0.00899646  0.84183262  1
  I  I161  1  0.47606930  0.02258380  0.16067416  1
  I  I162  1  0.49584087  0.49902518  0.84391463  1
  I  I163  1  0.46197202  0.51715622  0.16508965  1
  N  N164  1  0.22842755  0.22855177  0.87143083  1
  N  N165  1  0.27729377  0.23229976  0.13049257  1
  N  N166  1  0.22060016  0.76719620  0.86751768  1
  N  N167  1  0.23463994  0.71368125  0.13476778  1
  N  N168  1  0.77835575  0.26273191  0.12988202  1
  N  N169  1  0.76419322  0.22161274  0.87031927  1
  N  N170  1  0.71667094  0.77236606  0.13304674  1
  N  N171  1  0.77254893  0.77266206  0.86728397  1
