# generated using pymatgen
data_H15PbC9I4N2F
_symmetry_space_group_name_H-M   'P 1'
_cell_length_a   12.87218114
_cell_length_b   12.74647477
_cell_length_c   12.67304278
_cell_angle_alpha   89.19833078
_cell_angle_beta   89.86760146
_cell_angle_gamma   88.51362173
_symmetry_Int_Tables_number   1
_chemical_formula_structural   H15PbC9I4N2F
_chemical_formula_sum   'H60 Pb4 C36 I16 N8 F4'
_cell_volume   2078.42157253
_cell_formula_units_Z   4
loop_
 _symmetry_equiv_pos_site_id
 _symmetry_equiv_pos_as_xyz
  1  'x, y, z'
loop_
 _atom_site_type_symbol
 _atom_site_label
 _atom_site_symmetry_multiplicity
 _atom_site_fract_x
 _atom_site_fract_y
 _atom_site_fract_z
 _atom_site_occupancy
  H  H0  1  0.41991456  0.18911591  0.66973994  1
  H  H1  1  0.38397216  0.32153897  0.70052978  1
  H  H2  1  0.40393175  0.22574845  0.80287505  1
  H  H3  1  0.25039616  0.12683650  0.73827983  1
  H  H4  1  0.19277253  0.35032369  0.77252492  1
  H  H5  1  0.23000421  0.26708873  0.86718558  1
  H  H6  1  0.12165434  0.24449368  0.80117717  1
  H  H7  1  0.21339166  0.06102692  0.57163780  1
  H  H8  1  0.16720996  0.08626477  0.38299881  1
  H  H9  1  0.10858676  0.34962671  0.25784665  1
  H  H10  1  0.08848055  0.21197864  0.24739288  1
  H  H11  1  0.29578885  0.30726150  0.22596288  1
  H  H12  1  0.26416447  0.18337060  0.19720972  1
  H  H13  1  0.21752215  0.28565275  0.12601921  1
  H  H14  1  0.17554358  0.42309229  0.42112301  1
  H  H15  1  0.17143299  0.59064913  0.68054044  1
  H  H16  1  0.30518942  0.60784470  0.70899247  1
  H  H17  1  0.21165153  0.60480867  0.81307514  1
  H  H18  1  0.12609526  0.77011766  0.73987529  1
  H  H19  1  0.35111337  0.78999974  0.78665182  1
  H  H20  1  0.25166238  0.78348200  0.87194969  1
  H  H21  1  0.26079980  0.88640649  0.79075331  1
  H  H22  1  0.06237838  0.80556883  0.57348734  1
  H  H23  1  0.08746911  0.84566712  0.38234208  1
  H  H24  1  0.33728979  0.90713868  0.26526995  1
  H  H25  1  0.20023828  0.90239514  0.24401036  1
  H  H26  1  0.33877278  0.70917628  0.23368711  1
  H  H27  1  0.21775128  0.73063257  0.18495084  1
  H  H28  1  0.31777412  0.79094372  0.13179615  1
  H  H29  1  0.42012950  0.80854539  0.42284032  1
  H  H30  1  0.80695090  0.07475606  0.32481890  1
  H  H31  1  0.67669851  0.11476126  0.29257922  1
  H  H32  1  0.77287853  0.09859618  0.19184603  1
  H  H33  1  0.87331606  0.24620537  0.26517960  1
  H  H34  1  0.65559931  0.31949926  0.23231160  1
  H  H35  1  0.73205976  0.27974535  0.13552942  1
  H  H36  1  0.76789552  0.38267335  0.20691737  1
  H  H37  1  0.93872275  0.28276851  0.43151688  1
  H  H38  1  0.91443089  0.33062042  0.61944923  1
  H  H39  1  0.65876774  0.39923422  0.73918385  1
  H  H40  1  0.79651584  0.40337366  0.75461633  1
  H  H41  1  0.67684996  0.20594052  0.77430021  1
  H  H42  1  0.80162117  0.22484912  0.80820318  1
  H  H43  1  0.70441535  0.28295517  0.87429275  1
  H  H44  1  0.58098599  0.32278059  0.57834567  1
  H  H45  1  0.91430183  0.82984862  0.32404948  1
  H  H46  1  0.90254186  0.69327600  0.29819115  1
  H  H47  1  0.90469907  0.78761080  0.19232508  1
  H  H48  1  0.73699583  0.86901554  0.25964170  1
  H  H49  1  0.73038321  0.64321669  0.20902647  1
  H  H50  1  0.72391730  0.74848539  0.12793081  1
  H  H51  1  0.62656111  0.72491257  0.21162205  1
  H  H52  1  0.71359319  0.93347847  0.42735406  1
  H  H53  1  0.67059704  0.90846148  0.61683948  1
  H  H54  1  0.60174040  0.65077876  0.73403807  1
  H  H55  1  0.59298524  0.78948544  0.74945905  1
  H  H56  1  0.79540434  0.66890518  0.77052003  1
  H  H57  1  0.76378414  0.79118246  0.81262947  1
  H  H58  1  0.71156313  0.68694328  0.86942346  1
  H  H59  1  0.68082576  0.57219161  0.57440973  1
  Pb  Pb60  1  1.00036601  0.99444453  0.98238373  1
  Pb  Pb61  1  0.98033419  0.51472431  0.99364472  1
  Pb  Pb62  1  0.50981932  0.00332943  0.00484149  1
  Pb  Pb63  1  0.47444681  0.50375480  0.01687272  1
  C  C64  1  0.37371512  0.23910819  0.72263926  1
  C  C65  1  0.26070631  0.20909147  0.71428206  1
  C  C66  1  0.22131563  0.22596000  0.60323214  1
  C  C67  1  0.20617037  0.14001381  0.53786307  1
  C  C68  1  0.18127071  0.15429451  0.43174214  1
  C  C69  1  0.17056858  0.25563218  0.38783479  1
  C  C70  1  0.14302283  0.27133627  0.27362083  1
  C  C71  1  0.18428826  0.34299281  0.45184819  1
  C  C72  1  0.20948567  0.32571401  0.55699689  1
  C  C73  1  0.22569879  0.63094596  0.73142809  1
  C  C74  1  0.20639313  0.74837348  0.71789389  1
  C  C75  1  0.22532263  0.78309946  0.60551264  1
  C  C76  1  0.14027718  0.80534573  0.53948040  1
  C  C77  1  0.15427804  0.82679178  0.43245234  1
  C  C78  1  0.25423039  0.82809098  0.38863971  1
  C  C79  1  0.26849630  0.85859262  0.27477487  1
  C  C80  1  0.34084230  0.80643896  0.45334479  1
  C  C81  1  0.32400442  0.78334222  0.55908245  1
  C  C82  1  0.75868571  0.12518015  0.27285315  1
  C  C83  1  0.79124731  0.23774649  0.28706391  1
  C  C84  1  0.77538076  0.27409098  0.39893319  1
  C  C85  1  0.86067124  0.29020075  0.46460529  1
  C  C86  1  0.84710889  0.31595486  0.57023139  1
  C  C87  1  0.74705281  0.32648965  0.61323681  1
  C  C88  1  0.73251663  0.35560519  0.72672043  1
  C  C89  1  0.66019897  0.31236085  0.54869781  1
  C  C90  1  0.67663189  0.28633786  0.44407152  1
  C  C91  1  0.87763937  0.77269208  0.27329356  1
  C  C92  1  0.76051316  0.78845943  0.28288822  1
  C  C93  1  0.72395533  0.76863229  0.39420709  1
  C  C94  1  0.70829201  0.85450228  0.46074979  1
  C  C95  1  0.68480263  0.84049893  0.56703318  1
  C  C96  1  0.67465999  0.73934005  0.60974548  1
  C  C97  1  0.64335007  0.72417678  0.72285644  1
  C  C98  1  0.68931462  0.65220894  0.54473572  1
  C  C99  1  0.71426271  0.66887113  0.43950719  1
  I  I100  1  0.26534487  0.04646190  0.00388849  1
  I  I101  1  0.22918067  0.45007391  0.00467878  1
  I  I102  1  0.76759825  0.91497342  0.99302879  1
  I  I103  1  0.72709342  0.51834810  1.00000754  1
  I  I104  1  0.96026635  0.26040780  0.96606308  1
  I  I105  1  0.08409658  0.75262540  0.00738001  1
  I  I106  1  0.54739655  0.24956973  0.01650301  1
  I  I107  1  0.47514873  0.75029390  0.98789954  1
  I  I108  1  0.02636058  0.01625414  0.73463170  1
  I  I109  1  0.01530140  0.02005093  0.22748553  1
  I  I110  1  0.95147688  0.55477380  0.74224314  1
  I  I111  1  0.94416224  0.48539369  0.23979832  1
  I  I112  1  0.51323691  0.99722531  0.75548645  1
  I  I113  1  0.52341032  0.97019675  0.25264954  1
  I  I114  1  0.47874988  0.49447496  0.77228371  1
  I  I115  1  0.45553295  0.54518785  0.27052120  1
  N  N116  1  0.19650925  0.27177060  0.79307829  1
  N  N117  1  0.23665352  0.26002274  0.20224548  1
  N  N118  1  0.27260908  0.80613777  0.79594492  1
  N  N119  1  0.28647765  0.76631549  0.20320910  1
  N  N120  1  0.73252731  0.31000729  0.21079353  1
  N  N121  1  0.72894705  0.26057192  0.79944550  1
  N  N122  1  0.70649809  0.72100352  0.20330960  1
  N  N123  1  0.73439223  0.71827422  0.79722820  1
  F  F124  1  0.22391240  0.41193314  0.61908646  1
  F  F125  1  0.40872594  0.75972186  0.62174501  1
  F  F126  1  0.59108303  0.27289904  0.38115959  1
  F  F127  1  0.72971133  0.58249311  0.37708826  1
