# generated using pymatgen
data_H15PbC9I4N2F
_symmetry_space_group_name_H-M   'P 1'
_cell_length_a   12.51942406
_cell_length_b   12.36859017
_cell_length_c   12.63614085
_cell_angle_alpha   89.83972900
_cell_angle_beta   89.96621346
_cell_angle_gamma   88.86998086
_symmetry_Int_Tables_number   1
_chemical_formula_structural   H15PbC9I4N2F
_chemical_formula_sum   'H60 Pb4 C36 I16 N8 F4'
_cell_volume   1956.28793006
_cell_formula_units_Z   4
loop_
 _symmetry_equiv_pos_site_id
 _symmetry_equiv_pos_as_xyz
  1  'x, y, z'
loop_
 _atom_site_type_symbol
 _atom_site_label
 _atom_site_symmetry_multiplicity
 _atom_site_fract_x
 _atom_site_fract_y
 _atom_site_fract_z
 _atom_site_occupancy
  H  H0  1  0.08291971  0.27151398  0.73207248  1
  H  H1  1  0.15904773  0.15442101  0.76861630  1
  H  H2  1  0.14448581  0.26475198  0.85823416  1
  H  H3  1  0.24385757  0.38452946  0.73838309  1
  H  H4  1  0.33898139  0.27076906  0.86647662  1
  H  H5  1  0.41277990  0.31672734  0.76659018  1
  H  H6  1  0.37809365  0.18468414  0.77096718  1
  H  H7  1  0.27230846  0.09864953  0.62941760  1
  H  H8  1  0.27559444  0.06075777  0.43770508  1
  H  H9  1  0.18007997  0.23986146  0.24156055  1
  H  H10  1  0.25694387  0.11865381  0.25973885  1
  H  H11  1  0.35815013  0.33352216  0.22497660  1
  H  H12  1  0.33017479  0.24163905  0.13152158  1
  H  H13  1  0.41477501  0.20764395  0.22848645  1
  H  H14  1  0.25434238  0.44232034  0.56213673  1
  H  H15  1  0.26527410  0.92280861  0.72987570  1
  H  H16  1  0.15513725  0.84396495  0.76929593  1
  H  H17  1  0.26535504  0.86097517  0.85659956  1
  H  H18  1  0.38531143  0.75772815  0.73701378  1
  H  H19  1  0.27539422  0.66589473  0.86690698  1
  H  H20  1  0.32206180  0.58881261  0.76854187  1
  H  H21  1  0.19009133  0.62657491  0.77211773  1
  H  H22  1  0.10268690  0.73087291  0.62939173  1
  H  H23  1  0.06362631  0.72602695  0.43823254  1
  H  H24  1  0.23891134  0.81540177  0.23652665  1
  H  H25  1  0.11987788  0.74259199  0.25833616  1
  H  H26  1  0.33396658  0.63414528  0.22886628  1
  H  H27  1  0.24164329  0.65662954  0.13518778  1
  H  H28  1  0.21222979  0.57756672  0.23760623  1
  H  H29  1  0.44088614  0.74841924  0.56006000  1
  H  H30  1  0.73272358  0.42078963  0.27023395  1
  H  H31  1  0.84578084  0.34156548  0.23085430  1
  H  H32  1  0.73526156  0.36038018  0.14333299  1
  H  H33  1  0.61743132  0.25954346  0.26266021  1
  H  H34  1  0.73048889  0.16474122  0.13292743  1
  H  H35  1  0.68006153  0.09000774  0.23063184  1
  H  H36  1  0.81233812  0.12053009  0.22947774  1
  H  H37  1  0.90023886  0.22713013  0.37163966  1
  H  H38  1  0.93745670  0.22209415  0.56342472  1
  H  H39  1  0.76266595  0.32063559  0.75916363  1
  H  H40  1  0.88016330  0.23918171  0.74180623  1
  H  H41  1  0.66477526  0.14400212  0.77530216  1
  H  H42  1  0.75609588  0.16823919  0.86920874  1
  H  H43  1  0.78698080  0.08206696  0.77250477  1
  H  H44  1  0.56078787  0.24759382  0.43813608  1
  H  H45  1  0.58207535  0.72922411  0.26899547  1
  H  H46  1  0.65714179  0.84271746  0.23015607  1
  H  H47  1  0.64338933  0.73136851  0.14234736  1
  H  H48  1  0.74746400  0.61161527  0.26190005  1
  H  H49  1  0.83577064  0.72541535  0.13214236  1
  H  H50  1  0.91336557  0.67905525  0.23003422  1
  H  H51  1  0.87307783  0.81148339  0.22712365  1
  H  H52  1  0.77034887  0.89782785  0.36953830  1
  H  H53  1  0.77266902  0.93710251  0.56066205  1
  H  H54  1  0.68116658  0.76010676  0.76026130  1
  H  H55  1  0.75351574  0.88061763  0.73954333  1
  H  H56  1  0.85875781  0.66455546  0.77583382  1
  H  H57  1  0.83603611  0.76126805  0.86637231  1
  H  H58  1  0.91600904  0.78681053  0.76453893  1
  H  H59  1  0.75622679  0.55506806  0.43929032  1
  Pb  Pb60  1  0.01234209  0.99865683  0.99976396  1
  Pb  Pb61  1  0.00771954  0.48334305  0.99849875  1
  Pb  Pb62  1  0.49955320  0.98564961  0.00382697  1
  Pb  Pb63  1  0.51998756  0.50084262  0.99659171  1
  C  C64  1  0.15425844  0.24276218  0.77470027  1
  C  C65  1  0.25106699  0.29662441  0.72668238  1
  C  C66  1  0.26263609  0.27283627  0.60999913  1
  C  C67  1  0.26938861  0.16591565  0.57343857  1
  C  C68  1  0.27071486  0.14416968  0.46542421  1
  C  C69  1  0.26398590  0.22822481  0.39086614  1
  C  C70  1  0.25468766  0.20596368  0.27455829  1
  C  C71  1  0.25972777  0.33359077  0.43021701  1
  C  C72  1  0.25931856  0.35806769  0.53710500  1
  C  C73  1  0.24220287  0.85033763  0.77361784  1
  C  C74  1  0.29849087  0.75214123  0.72575385  1
  C  C75  1  0.27426221  0.74019190  0.60907262  1
  C  C76  1  0.16858291  0.73349426  0.57307282  1
  C  C77  1  0.14612584  0.73131731  0.46518826  1
  C  C78  1  0.22819565  0.73785571  0.39014991  1
  C  C79  1  0.20600036  0.74285534  0.27355441  1
  C  C80  1  0.33244719  0.74361439  0.42864320  1
  C  C81  1  0.35765983  0.74382975  0.53545210  1
  C  C82  1  0.75855958  0.34865116  0.22631766  1
  C  C83  1  0.70428882  0.25125537  0.27391271  1
  C  C84  1  0.72811101  0.23817541  0.39062121  1
  C  C85  1  0.83370499  0.23018182  0.42739751  1
  C  C86  1  0.85509477  0.22806880  0.53557207  1
  C  C87  1  0.77214385  0.23568363  0.60992769  1
  C  C88  1  0.79408560  0.24425130  0.72633890  1
  C  C89  1  0.66806405  0.24163081  0.57044366  1
  C  C90  1  0.64392277  0.24224619  0.46345309  1
  C  C91  1  0.65301427  0.75440590  0.22551510  1
  C  C92  1  0.75128742  0.69951928  0.27334606  1
  C  C93  1  0.76268608  0.72390239  0.39001656  1
  C  C94  1  0.76794328  0.83096494  0.42586441  1
  C  C95  1  0.76848465  0.85355430  0.53374318  1
  C  C96  1  0.76210792  0.77030293  0.60888875  1
  C  C97  1  0.75376730  0.79334658  0.72517399  1
  C  C98  1  0.75898166  0.66456197  0.57060578  1
  C  C99  1  0.75975905  0.63939096  0.46371180  1
  I  I100  1  0.25613933  0.07546677  0.00559165  1
  I  I101  1  0.26245084  0.43932558  0.00184138  1
  I  I102  1  0.75590136  0.93491684  0.99890837  1
  I  I103  1  0.76244440  0.56906972  0.98867105  1
  I  I104  1  0.92102717  0.24037451  0.99786877  1
  I  I105  1  0.06237390  0.73981852  0.00339848  1
  I  I106  1  0.56083233  0.24346478  0.99501457  1
  I  I107  1  0.42260188  0.74392032  0.01018261  1
  I  I108  1  0.97444661  0.99202736  0.73960039  1
  I  I109  1  0.98379620  0.99332576  0.25295139  1
  I  I110  1  0.01807802  0.51612336  0.74442573  1
  I  I111  1  0.01535147  0.50288836  0.25585760  1
  I  I112  1  0.50159252  0.00242691  0.75199009  1
  I  I113  1  0.49819069  0.02080875  0.26565334  1
  I  I114  1  0.49929654  0.50035921  0.73938305  1
  I  I115  1  0.49655423  0.49136736  0.24936532  1
  N  N116  1  0.35164418  0.26354926  0.78581032  1
  N  N117  1  0.34480684  0.25185863  0.21155321  1
  N  N118  1  0.26786051  0.65195320  0.78648467  1
  N  N119  1  0.25253398  0.64695552  0.21588410  1
  N  N120  1  0.73545911  0.15011842  0.21345246  1
  N  N121  1  0.74580624  0.15420252  0.78905453  1
  N  N122  1  0.84973974  0.73246140  0.21259542  1
  N  N123  1  0.84684969  0.74723473  0.78626272  1
  F  F124  1  0.25479968  0.41718032  0.35891232  1
  F  F125  1  0.41344601  0.75000185  0.35634098  1
  F  F126  1  0.58564738  0.24805239  0.64170828  1
  F  F127  1  0.75432809  0.58215870  0.64272326  1
