# generated using pymatgen
data_H16PbC14S3(I2N)2
_symmetry_space_group_name_H-M   'P 1'
_cell_length_a   12.36100650
_cell_length_b   12.27381531
_cell_length_c   19.83693398
_cell_angle_alpha   87.04112183
_cell_angle_beta   86.14460675
_cell_angle_gamma   90.00517420
_symmetry_Int_Tables_number   1
_chemical_formula_structural   H16PbC14S3(I2N)2
_chemical_formula_sum   'H64 Pb4 C56 S12 I16 N8'
_cell_volume   2998.76110511
_cell_formula_units_Z   4
loop_
 _symmetry_equiv_pos_site_id
 _symmetry_equiv_pos_as_xyz
  1  'x, y, z'
loop_
 _atom_site_type_symbol
 _atom_site_label
 _atom_site_symmetry_multiplicity
 _atom_site_fract_x
 _atom_site_fract_y
 _atom_site_fract_z
 _atom_site_occupancy
  H  H0  1  0.15638444  0.24545416  0.84797692  1
  H  H1  1  0.24279013  0.29055418  0.90115118  1
  H  H2  1  0.19044722  0.37842734  0.84453782  1
  H  H3  1  0.32518852  0.18506650  0.80824198  1
  H  H4  1  0.38428658  0.31408783  0.82147613  1
  H  H5  1  0.27819940  0.15168043  0.68834088  1
  H  H6  1  0.26786726  0.07009709  0.58776200  1
  H  H7  1  0.24590419  0.01655559  0.46403980  1
  H  H8  1  0.21196054  0.00766739  0.35114394  1
  H  H9  1  0.17063144  0.40862259  0.20268388  1
  H  H10  1  0.10650145  0.30136959  0.16368111  1
  H  H11  1  0.34187699  0.35598678  0.15306966  1
  H  H12  1  0.25332026  0.36178743  0.09237339  1
  H  H13  1  0.29335231  0.24050809  0.12496330  1
  H  H14  1  0.22313178  0.36407121  0.32793234  1
  H  H15  1  0.27289473  0.47340130  0.58211338  1
  H  H16  1  0.25527779  0.86898709  0.84632810  1
  H  H17  1  0.27589214  0.77256311  0.90637113  1
  H  H18  1  0.37720631  0.81131965  0.85065060  1
  H  H19  1  0.17112386  0.70833378  0.81411094  1
  H  H20  1  0.28790703  0.63108263  0.83220730  1
  H  H21  1  0.14769644  0.73312636  0.69180579  1
  H  H22  1  0.07019696  0.73139676  0.59245604  1
  H  H23  1  0.01812050  0.75026039  0.46722438  1
  H  H24  1  0.01241280  0.77344927  0.34812122  1
  H  H25  1  0.42039411  0.81771656  0.20485869  1
  H  H26  1  0.31976016  0.88749957  0.16040104  1
  H  H27  1  0.36117789  0.64763920  0.16006054  1
  H  H28  1  0.39146836  0.74201149  0.09811098  1
  H  H29  1  0.26261689  0.71406982  0.11935960  1
  H  H30  1  0.36724716  0.77833900  0.33122105  1
  H  H31  1  0.47109294  0.73656526  0.58735870  1
  H  H32  1  0.73534140  0.32663277  0.14270250  1
  H  H33  1  0.71074581  0.22067531  0.09456578  1
  H  H34  1  0.60998450  0.26770312  0.14547210  1
  H  H35  1  0.81412734  0.16796533  0.19038849  1
  H  H36  1  0.69252674  0.09430195  0.18332760  1
  H  H37  1  0.84684938  0.21444610  0.30785711  1
  H  H38  1  0.93088541  0.23069476  0.40800361  1
  H  H39  1  0.98376654  0.24971805  0.53197422  1
  H  H40  1  0.98886623  0.26313669  0.65211732  1
  H  H41  1  0.58024150  0.32072247  0.78793366  1
  H  H42  1  0.68168454  0.38579857  0.83030395  1
  H  H43  1  0.62097414  0.15053426  0.84507862  1
  H  H44  1  0.60517918  0.24649427  0.90127167  1
  H  H45  1  0.72895428  0.20318308  0.88032255  1
  H  H46  1  0.63430834  0.27966234  0.66557123  1
  H  H47  1  0.52953876  0.23333771  0.41845713  1
  H  H48  1  0.67351069  0.69796271  0.15795827  1
  H  H49  1  0.77598576  0.70792537  0.09711930  1
  H  H50  1  0.75916473  0.59258539  0.14552155  1
  H  H51  1  0.83536035  0.80795897  0.18644496  1
  H  H52  1  0.91034058  0.68638056  0.17569692  1
  H  H53  1  0.79389133  0.84578686  0.30783113  1
  H  H54  1  0.76718284  0.93410045  0.40954558  1
  H  H55  1  0.74776453  0.98926218  0.53498663  1
  H  H56  1  0.73749055  0.99634211  0.65462761  1
  H  H57  1  0.70276308  0.58823912  0.79718409  1
  H  H58  1  0.62753817  0.68789171  0.84053250  1
  H  H59  1  0.86574216  0.65033285  0.84536982  1
  H  H60  1  0.76769239  0.62011260  0.90479631  1
  H  H61  1  0.79761272  0.75029466  0.88479437  1
  H  H62  1  0.72946453  0.63937355  0.67058862  1
  H  H63  1  0.76298630  0.53046796  0.42100177  1
  Pb  Pb64  1  0.01055222  0.01069848  0.99352810  1
  Pb  Pb65  1  0.99210511  0.50198466  0.99539883  1
  Pb  Pb66  1  0.48720809  0.01413911  0.99951296  1
  Pb  Pb67  1  0.49988104  0.50295478  0.00819780  1
  C  C68  1  0.31370689  0.27368521  0.80284330  1
  C  C69  1  0.29619666  0.30785895  0.73139227  1
  C  C70  1  0.28160829  0.23999736  0.67975449  1
  C  C71  1  0.27201791  0.29703746  0.61548766  1
  C  C72  1  0.25978432  0.24132100  0.55345811  1
  C  C73  1  0.25949361  0.12959899  0.54583790  1
  C  C74  1  0.24797337  0.10069138  0.47882251  1
  C  C75  1  0.23907514  0.18952648  0.43344126  1
  C  C76  1  0.22287028  0.18744291  0.36146726  1
  C  C77  1  0.20968083  0.09054984  0.32938690  1
  C  C78  1  0.19467327  0.25071991  0.25035353  1
  C  C79  1  0.17885395  0.32326843  0.18935572  1
  C  C80  1  0.21499188  0.27946879  0.31470047  1
  C  C81  1  0.27805978  0.40907980  0.62152370  1
  C  C82  1  0.25987483  0.70929498  0.81029005  1
  C  C83  1  0.30037389  0.72649080  0.73808138  1
  C  C84  1  0.23567886  0.73275590  0.68439458  1
  C  C85  1  0.29463972  0.73643331  0.61960147  1
  C  C86  1  0.24056478  0.74310925  0.55659057  1
  C  C87  1  0.12964361  0.74045172  0.54953522  1
  C  C88  1  0.10147153  0.75039163  0.48183137  1
  C  C89  1  0.19024267  0.76039334  0.43539881  1
  C  C90  1  0.19013122  0.77189856  0.36204522  1
  C  C91  1  0.09596850  0.77739522  0.32739028  1
  C  C92  1  0.26001987  0.79132618  0.24912547  1
  C  C93  1  0.33741973  0.81139071  0.18914489  1
  C  C94  1  0.28421245  0.77974170  0.31587314  1
  C  C95  1  0.40558819  0.73355814  0.62686535  1
  C  C96  1  0.72542516  0.17306865  0.19622861  1
  C  C97  1  0.69035843  0.20094340  0.26665743  1
  C  C98  1  0.75905512  0.21506007  0.31734799  1
  C  C99  1  0.70417623  0.22800202  0.38243587  1
  C  C100  1  0.76057409  0.23941469  0.44380226  1
  C  C101  1  0.87161363  0.23884113  0.45054617  1
  C  C102  1  0.90026828  0.24868438  0.51765700  1
  C  C103  1  0.81187284  0.25695252  0.56385318  1
  C  C104  1  0.81166767  0.26780511  0.63657857  1
  C  C105  1  0.90515707  0.26963295  0.67184369  1
  C  C106  1  0.74043147  0.28882493  0.74774084  1
  C  C107  1  0.66206605  0.31108401  0.80541626  1
  C  C108  1  0.71708485  0.27835773  0.68145521  1
  C  C109  1  0.59258519  0.22514377  0.37810866  1
  C  C110  1  0.83139693  0.71864215  0.19401229  1
  C  C111  1  0.80358813  0.68622279  0.26657977  1
  C  C112  1  0.79011410  0.75767211  0.31775098  1
  C  C113  1  0.77416767  0.70482199  0.38382443  1
  C  C114  1  0.76213590  0.76320823  0.44572531  1
  C  C115  1  0.76055458  0.87510378  0.45253191  1
  C  C116  1  0.74993619  0.90495064  0.52039907  1
  C  C117  1  0.74350540  0.81652853  0.56685999  1
  C  C118  1  0.73581624  0.81735822  0.64028654  1
  C  C119  1  0.73438325  0.91268536  0.67528682  1
  C  C120  1  0.72624644  0.74895060  0.75308381  1
  C  C121  1  0.70566390  0.67238546  0.81300588  1
  C  C122  1  0.73107219  0.72328429  0.68611879  1
  C  C123  1  0.77416995  0.59231385  0.37984976  1
  S  S124  1  0.18476476  0.11100445  0.24668408  1
  S  S125  1  0.24548595  0.30991616  0.47562562  1
  S  S126  1  0.29800176  0.44328010  0.70218982  1
  S  S127  1  0.12155834  0.79363526  0.24201538  1
  S  S128  1  0.30944674  0.75769489  0.47739570  1
  S  S129  1  0.43608496  0.72445681  0.70981852  1
  S  S130  1  0.87844628  0.28535129  0.75610599  1
  S  S131  1  0.69229660  0.25259457  0.52245944  1
  S  S132  1  0.55614641  0.20398919  0.29826911  1
  S  S133  1  0.72711949  0.88813945  0.76055757  1
  S  S134  1  0.75015511  0.69558415  0.52497709  1
  S  S135  1  0.79600914  0.55217458  0.29898885  1
  I  I136  1  0.24346471  0.91076309  0.01699308  1
  I  I137  1  0.23749400  0.56095888  0.02092419  1
  I  I138  1  0.74189636  0.07667785  -0.00096202  1
  I  I139  1  0.74259462  0.43069538  0.97009159  1
  I  I140  1  0.07966209  0.25632634  0.00811407  1
  I  I141  1  0.92019759  0.75452411  0.00157246  1
  I  I142  1  0.41929188  0.25858583  0.97780950  1
  I  I143  1  0.56598398  0.75252355  0.01358762  1
  I  I144  1  0.09616389  0.01969140  0.82994865  1
  I  I145  1  0.96137605  0.00259120  0.14903957  1
  I  I146  1  0.02449752  0.52186221  0.83246045  1
  I  I147  1  0.90621018  0.44205206  0.14956283  1
  I  I148  1  0.48003197  0.01118829  0.83413772  1
  I  I149  1  0.46108595  0.07803199  0.15148466  1
  I  I150  1  0.46549897  0.52190065  0.85617154  1
  I  I151  1  0.49171140  0.48794308  0.18055920  1
  N  N152  1  0.21986570  0.29966213  0.85167149  1
  N  N153  1  0.27263989  0.31937919  0.13664873  1
  N  N154  1  0.29478604  0.79497786  0.85586156  1
  N  N155  1  0.33685995  0.72310384  0.13952736  1
  N  N156  1  0.69247304  0.25359674  0.14146974  1
  N  N157  1  0.65566318  0.22257365  0.86054623  1
  N  N158  1  0.75285828  0.67736446  0.14625372  1
  N  N159  1  0.78917370  0.67544647  0.86434052  1
