# generated using pymatgen
data_H16PbC14S3(I2N)2
_symmetry_space_group_name_H-M   'P 1'
_cell_length_a   12.39340464
_cell_length_b   12.07105523
_cell_length_c   19.83984403
_cell_angle_alpha   89.61331177
_cell_angle_beta   91.32383611
_cell_angle_gamma   89.53752833
_symmetry_Int_Tables_number   1
_chemical_formula_structural   H16PbC14S3(I2N)2
_chemical_formula_sum   'H64 Pb4 C56 S12 I16 N8'
_cell_volume   2967.10957989
_cell_formula_units_Z   4
loop_
 _symmetry_equiv_pos_site_id
 _symmetry_equiv_pos_as_xyz
  1  'x, y, z'
loop_
 _atom_site_type_symbol
 _atom_site_label
 _atom_site_symmetry_multiplicity
 _atom_site_fract_x
 _atom_site_fract_y
 _atom_site_fract_z
 _atom_site_occupancy
  H  H0  1  0.28970424  0.32069215  0.86647989  1
  H  H1  1  0.25438415  0.20546997  0.90670211  1
  H  H2  1  0.33921421  0.19450522  0.84315874  1
  H  H3  1  0.10781763  0.26705620  0.83532576  1
  H  H4  1  0.15690820  0.13378110  0.81314874  1
  H  H5  1  0.20176406  0.10667124  0.68796401  1
  H  H6  1  0.25146697  0.36446405  0.49796082  1
  H  H7  1  0.27644466  0.43174888  0.39239236  1
  H  H8  1  0.31027614  0.46282624  0.26379928  1
  H  H9  1  0.38931368  0.20785420  0.16631403  1
  H  H10  1  0.35614051  0.35147286  0.15652996  1
  H  H11  1  0.16795131  0.30392857  0.14696132  1
  H  H12  1  0.23796829  0.22784786  0.09136501  1
  H  H13  1  0.19547955  0.16860709  0.16148918  1
  H  H14  1  0.26764769  0.02393994  0.42534927  1
  H  H15  1  0.23612222  0.44099047  0.60476479  1
  H  H16  1  0.32447047  0.70946243  0.87140516  1
  H  H17  1  0.20218307  0.73024820  0.90225754  1
  H  H18  1  0.21467355  0.65117246  0.83379132  1
  H  H19  1  0.27245258  0.89009264  0.83969313  1
  H  H20  1  0.14150122  0.84510271  0.81422901  1
  H  H21  1  0.11195255  0.79911891  0.68761599  1
  H  H22  1  0.36161727  0.74764672  0.50033052  1
  H  H23  1  0.42681012  0.72499309  0.39531759  1
  H  H24  1  0.45696503  0.69495313  0.26606331  1
  H  H25  1  0.20998296  0.61230175  0.16398754  1
  H  H26  1  0.34805321  0.64965031  0.15640640  1
  H  H27  1  0.29693295  0.84133223  0.14731455  1
  H  H28  1  0.21877227  0.76768878  0.09211678  1
  H  H29  1  0.16663412  0.81448837  0.16277785  1
  H  H30  1  0.03000058  0.73067913  0.42203555  1
  H  H31  1  0.43618776  0.76361085  0.60729679  1
  H  H32  1  0.69554589  0.21018139  0.12491574  1
  H  H33  1  0.81813601  0.24171158  0.09892599  1
  H  H34  1  0.80698784  0.15901046  0.16610835  1
  H  H35  1  0.72659124  0.39289326  0.15972260  1
  H  H36  1  0.85944962  0.35754304  0.18876033  1
  H  H37  1  0.88732750  0.30005287  0.31330509  1
  H  H38  1  0.63793153  0.24553668  0.50002816  1
  H  H39  1  0.57514217  0.22397830  0.60515071  1
  H  H40  1  0.54595351  0.19971773  0.73525143  1
  H  H41  1  0.79417659  0.11891313  0.83803113  1
  H  H42  1  0.65407916  0.15148823  0.84398633  1
  H  H43  1  0.69804270  0.34567410  0.85273801  1
  H  H44  1  0.76909706  0.27081831  0.91104679  1
  H  H45  1  0.83080208  0.32055438  0.84395346  1
  H  H46  1  0.97085256  0.22782235  0.57692604  1
  H  H47  1  0.56151565  0.26207660  0.39040255  1
  H  H48  1  0.78758924  0.68322266  0.13027303  1
  H  H49  1  0.75526667  0.80444387  0.09424727  1
  H  H50  1  0.83898912  0.80367362  0.16140445  1
  H  H51  1  0.60853461  0.73263439  0.15973456  1
  H  H52  1  0.65210875  0.86664826  0.18427904  1
  H  H53  1  0.69995502  0.89402567  0.31035635  1
  H  H54  1  0.75556708  0.63678228  0.50185629  1
  H  H55  1  0.77370958  0.57040119  0.60792441  1
  H  H56  1  0.80147195  0.53766993  0.73812818  1
  H  H57  1  0.87956112  0.79271885  0.83899450  1
  H  H58  1  0.85374325  0.64763587  0.84622990  1
  H  H59  1  0.66463037  0.68550923  0.85242614  1
  H  H60  1  0.73024877  0.76532665  0.90931335  1
  H  H61  1  0.68173598  0.82205409  0.83835108  1
  H  H62  1  0.77072082  0.97762678  0.57421007  1
  H  H63  1  0.74174249  0.55951866  0.39398600  1
  Pb  Pb64  1  0.97748328  0.98983705  0.00231097  1
  Pb  Pb65  1  1.00357068  0.49807089  0.00425386  1
  Pb  Pb66  1  0.47290509  0.00508602  0.00407742  1
  Pb  Pb67  1  0.50525577  0.49215851  0.98946256  1
  C  C68  1  0.17546634  0.22249503  0.81251933  1
  C  C69  1  0.19516251  0.26128788  0.74264296  1
  C  C70  1  0.20602232  0.19684822  0.68606339  1
  C  C71  1  0.22255997  0.26004049  0.62595152  1
  C  C72  1  0.23667302  0.21538630  0.55860961  1
  C  C73  1  0.25115062  0.27435260  0.49969192  1
  C  C74  1  0.26555480  0.20666562  0.44177981  1
  C  C75  1  0.28309407  0.25313053  0.37500924  1
  C  C76  1  0.28690143  0.36434140  0.35691827  1
  C  C77  1  0.30452302  0.38154354  0.28748710  1
  C  C78  1  0.31491224  0.28424331  0.25218451  1
  C  C79  1  0.33021990  0.27259733  0.17854048  1
  C  C80  1  0.26061798  0.09489649  0.45846889  1
  C  C81  1  0.22475541  0.37269548  0.63974242  1
  C  C82  1  0.22779723  0.82371159  0.81374723  1
  C  C83  1  0.26406148  0.80657224  0.74369399  1
  C  C84  1  0.19987394  0.79455821  0.68648639  1
  C  C85  1  0.26035395  0.77681009  0.62691839  1
  C  C86  1  0.21641693  0.76173645  0.55883570  1
  C  C87  1  0.27384393  0.74757560  0.50065003  1
  C  C88  1  0.20792030  0.73330611  0.44140451  1
  C  C89  1  0.25302852  0.71694968  0.37497130  1
  C  C90  1  0.36128811  0.71475788  0.35845217  1
  C  C91  1  0.37800264  0.69912412  0.28888346  1
  C  C92  1  0.28305814  0.68854700  0.25187843  1
  C  C93  1  0.27066108  0.67477367  0.17776458  1
  C  C94  1  0.09907907  0.73781008  0.45644614  1
  C  C95  1  0.37046782  0.77514503  0.64186604  1
  C  C96  1  0.77536305  0.32929935  0.18663021  1
  C  C97  1  0.73668905  0.30702338  0.25566524  1
  C  C98  1  0.79956545  0.29445226  0.31354403  1
  C  C99  1  0.73798558  0.27573425  0.37258151  1
  C  C100  1  0.78210544  0.26013259  0.44080305  1
  C  C101  1  0.72568758  0.24582429  0.49938955  1
  C  C102  1  0.79271728  0.23174072  0.55848931  1
  C  C103  1  0.74889393  0.21717289  0.62548141  1
  C  C104  1  0.64084425  0.21569555  0.64225116  1
  C  C105  1  0.62465917  0.20319197  0.71213950  1
  C  C106  1  0.71974079  0.19421135  0.74936756  1
  C  C107  1  0.73096371  0.17961956  0.82366318  1
  C  C108  1  0.90123329  0.23540908  0.54281588  1
  C  C109  1  0.62819123  0.27421950  0.35661903  1
  C  C110  1  0.67418742  0.77846384  0.18496862  1
  C  C111  1  0.69519741  0.73947793  0.25542497  1
  C  C112  1  0.70625851  0.80387030  0.31225033  1
  C  C113  1  0.72530532  0.74080485  0.37274492  1
  C  C114  1  0.74009492  0.78564040  0.44044069  1
  C  C115  1  0.75467309  0.72693951  0.49995263  1
  C  C116  1  0.76819021  0.79478530  0.55826586  1
  C  C117  1  0.78338175  0.74840360  0.62585980  1
  C  C118  1  0.78397332  0.63714929  0.64405350  1
  C  C119  1  0.79874523  0.61899055  0.71409477  1
  C  C120  1  0.81025899  0.71574442  0.75005267  1
  C  C121  1  0.82386526  0.72618099  0.82430307  1
  C  C122  1  0.76355750  0.90651271  0.54111884  1
  C  C123  1  0.72886735  0.62808620  0.35891192  1
  S  S124  1  0.30403308  0.17030061  0.30533944  1
  S  S125  1  0.23973956  0.07415839  0.54255799  1
  S  S126  1  0.20450901  0.40049313  0.72246452  1
  S  S127  1  0.17252157  0.69630096  0.30366130  1
  S  S128  1  0.07889281  0.75828124  0.54049573  1
  S  S129  1  0.39928016  0.79690844  0.72487234  1
  S  S130  1  0.83008001  0.20023116  0.69727990  1
  S  S131  1  0.92000320  0.25567623  0.45849217  1
  S  S132  1  0.60119323  0.29668116  0.27308931  1
  S  S133  1  0.80409822  0.83016584  0.69651194  1
  S  S134  1  0.74333654  0.92700514  0.45631107  1
  S  S135  1  0.70744407  0.60028048  0.27571112  1
  I  I136  1  0.22607587  0.06611408  0.99940447  1
  I  I137  1  0.25799906  0.42863519  0.99479570  1
  I  I138  1  0.72976917  0.93582727  0.99892492  1
  I  I139  1  0.76014180  0.56762079  0.00723821  1
  I  I140  1  0.93638760  0.24605738  0.00480374  1
  I  I141  1  0.08051510  0.74733783  0.99536039  1
  I  I142  1  0.58131660  0.24214022  0.00890763  1
  I  I143  1  0.45227692  0.74846681  0.97437261  1
  I  I144  1  0.97533505  0.99588193  0.84338818  1
  I  I145  1  0.97802544  0.97519364  0.17045577  1
  I  I146  1  0.99582463  0.47081504  0.84377715  1
  I  I147  1  0.03504097  0.48114403  0.16632610  1
  I  I148  1  0.46356210  0.02855167  0.84246104  1
  I  I149  1  0.44135817  0.97888005  0.16557578  1
  I  I150  1  0.55127916  0.49493347  0.82668652  1
  I  I151  1  0.52076582  0.51143268  0.14506101  1
  N  N152  1  0.27138549  0.23837519  0.85927537  1
  N  N153  1  0.22586708  0.24124495  0.14237422  1
  N  N154  1  0.24380250  0.72111866  0.85707660  1
  N  N155  1  0.23617160  0.78132901  0.14292851  1
  N  N156  1  0.77294768  0.22783624  0.14242679  1
  N  N157  1  0.75905784  0.28583483  0.85975709  1
  N  N158  1  0.77098225  0.76529754  0.14086886  1
  N  N159  1  0.71791212  0.75154721  0.85805903  1
