# generated using pymatgen
data_H16PbC14S3(I2N)2
_symmetry_space_group_name_H-M   'P 1'
_cell_length_a   12.61128333
_cell_length_b   12.26564450
_cell_length_c   19.85623152
_cell_angle_alpha   88.86734502
_cell_angle_beta   88.78656817
_cell_angle_gamma   90.45056790
_symmetry_Int_Tables_number   1
_chemical_formula_structural   H16PbC14S3(I2N)2
_chemical_formula_sum   'H64 Pb4 C56 S12 I16 N8'
_cell_volume   3070.07726905
_cell_formula_units_Z   4
loop_
 _symmetry_equiv_pos_site_id
 _symmetry_equiv_pos_as_xyz
  1  'x, y, z'
loop_
 _atom_site_type_symbol
 _atom_site_label
 _atom_site_symmetry_multiplicity
 _atom_site_fract_x
 _atom_site_fract_y
 _atom_site_fract_z
 _atom_site_occupancy
  H  H0  1  0.19488651  0.20678153  0.87064367  1
  H  H1  1  0.14738321  0.32883211  0.84520860  1
  H  H2  1  0.22973191  0.32347028  0.90912361  1
  H  H3  1  0.37751417  0.27133415  0.84303591  1
  H  H4  1  0.32213519  0.39362104  0.81168784  1
  H  H5  1  0.29750944  0.39973568  0.68230995  1
  H  H6  1  0.28335524  0.45014787  0.56020071  1
  H  H7  1  0.25952276  0.44823445  0.42967038  1
  H  H8  1  0.26299492  0.05987603  0.37363662  1
  H  H9  1  0.21701374  0.05043026  0.24528952  1
  H  H10  1  0.14323795  0.17053930  0.15006107  1
  H  H11  1  0.09140643  0.29961834  0.17206221  1
  H  H12  1  0.21634393  0.32714759  0.08614962  1
  H  H13  1  0.31341322  0.26087073  0.12495840  1
  H  H14  1  0.26696587  0.37923439  0.15475556  1
  H  H15  1  0.26900391  0.05830281  0.62474503  1
  H  H16  1  0.22275039  0.80934788  0.87087109  1
  H  H17  1  0.33894676  0.85524649  0.83952560  1
  H  H18  1  0.33675195  0.77276784  0.90664277  1
  H  H19  1  0.27254211  0.62058429  0.84710924  1
  H  H20  1  0.39378580  0.67013472  0.81170961  1
  H  H21  1  0.39730150  0.69820908  0.68220957  1
  H  H22  1  0.44430190  0.71559287  0.56104192  1
  H  H23  1  0.44216738  0.74052233  0.42958538  1
  H  H24  1  0.06468526  0.73967285  0.37558147  1
  H  H25  1  0.05598791  0.78482664  0.24557123  1
  H  H26  1  0.17386921  0.85373166  0.14703287  1
  H  H27  1  0.30299135  0.90472970  0.16459034  1
  H  H28  1  0.31725356  0.76311489  0.08657227  1
  H  H29  1  0.24682745  0.67402101  0.13730052  1
  H  H30  1  0.36939999  0.71873908  0.15790350  1
  H  H31  1  0.06508609  0.73382525  0.62723880  1
  H  H32  1  0.77876799  0.28206325  0.11826848  1
  H  H33  1  0.66927577  0.34021888  0.15232836  1
  H  H34  1  0.65904039  0.25003602  0.09086973  1
  H  H35  1  0.72301518  0.10333210  0.15856454  1
  H  H36  1  0.60455877  0.15952955  0.19168460  1
  H  H37  1  0.60398531  0.20101115  0.31765459  1
  H  H38  1  0.55726351  0.21764692  0.43766808  1
  H  H39  1  0.55839017  0.24170409  0.56839627  1
  H  H40  1  0.93475368  0.23187555  0.62230653  1
  H  H41  1  0.94615946  0.26139380  0.75310621  1
  H  H42  1  0.83444483  0.33204045  0.85143708  1
  H  H43  1  0.70859572  0.38896537  0.83301858  1
  H  H44  1  0.67201171  0.25410786  0.91097013  1
  H  H45  1  0.75318179  0.16317293  0.87857600  1
  H  H46  1  0.63973901  0.19072074  0.84096577  1
  H  H47  1  0.93782802  0.22640366  0.37110044  1
  H  H48  1  0.70514939  0.78307392  0.13184553  1
  H  H49  1  0.66466385  0.65846256  0.15699375  1
  H  H50  1  0.74798325  0.67173893  0.09062144  1
  H  H51  1  0.89158608  0.73053173  0.15451822  1
  H  H52  1  0.84070618  0.60497038  0.18828493  1
  H  H53  1  0.80171089  0.59968087  0.31703775  1
  H  H54  1  0.78382612  0.55001820  0.43849517  1
  H  H55  1  0.75826120  0.55144359  0.56974791  1
  H  H56  1  0.76907254  0.93808488  0.62508979  1
  H  H57  1  0.73441929  0.94724602  0.75607074  1
  H  H58  1  0.65989191  0.82579213  0.85516717  1
  H  H59  1  0.60671647  0.69525081  0.83566751  1
  H  H60  1  0.73975796  0.65628017  0.90899476  1
  H  H61  1  0.82661348  0.74518874  0.87607320  1
  H  H62  1  0.79807758  0.63133221  0.83538005  1
  H  H63  1  0.77175567  0.94135263  0.37340417  1
  Pb  Pb64  1  0.00813207  1.00550016  0.98829577  1
  Pb  Pb65  1  0.02248381  0.51441698  0.00404012  1
  Pb  Pb66  1  0.51746731  0.98995581  0.00650054  1
  Pb  Pb67  1  0.51500909  0.48977433  0.01098511  1
  C  C68  1  0.30937005  0.30523813  0.81636174  1
  C  C69  1  0.29586356  0.25710320  0.74889069  1
  C  C70  1  0.29239464  0.31118478  0.68740316  1
  C  C71  1  0.28211910  0.23904285  0.63201913  1
  C  C72  1  0.27425065  0.27217879  0.56159692  1
  C  C73  1  0.27438451  0.37555818  0.53191873  1
  C  C74  1  0.26110627  0.37469402  0.46134481  1
  C  C75  1  0.25086196  0.27054181  0.43601664  1
  C  C76  1  0.23439562  0.23534677  0.36802041  1
  C  C77  1  0.24151265  0.13058160  0.34293989  1
  C  C78  1  0.21842669  0.12535672  0.27377150  1
  C  C79  1  0.19364166  0.22537095  0.24552168  1
  C  C80  1  0.16126820  0.24721430  0.17524720  1
  C  C81  1  0.27768896  0.13100141  0.65460152  1
  C  C82  1  0.30897779  0.68792769  0.81713654  1
  C  C83  1  0.26034574  0.70286960  0.75012042  1
  C  C84  1  0.31152295  0.70522456  0.68800691  1
  C  C85  1  0.24035825  0.71726955  0.63319419  1
  C  C86  1  0.27158167  0.72486488  0.56241920  1
  C  C87  1  0.37197557  0.72466536  0.53253362  1
  C  C88  1  0.37102733  0.73864070  0.46167613  1
  C  C89  1  0.26982874  0.74965724  0.43644552  1
  C  C90  1  0.23585194  0.76708375  0.36818889  1
  C  C91  1  0.13352705  0.76137848  0.34389638  1
  C  C92  1  0.12852819  0.78485506  0.27421183  1
  C  C93  1  0.22620115  0.80900921  0.24476585  1
  C  C94  1  0.24830418  0.83540231  0.17248597  1
  C  C95  1  0.13607167  0.72417320  0.65675991  1
  C  C96  1  0.68984151  0.17441855  0.18414412  1
  C  C97  1  0.74044868  0.19539330  0.24969184  1
  C  C98  1  0.68997411  0.20465811  0.31154419  1
  C  C99  1  0.76164214  0.21749846  0.36590284  1
  C  C100  1  0.73006398  0.22872013  0.43632289  1
  C  C101  1  0.62948211  0.22809181  0.46600974  1
  C  C102  1  0.62988687  0.24149794  0.53661417  1
  C  C103  1  0.73095152  0.25235449  0.56207463  1
  C  C104  1  0.76530597  0.26468365  0.63045904  1
  C  C105  1  0.86730565  0.25285283  0.65449040  1
  C  C106  1  0.87386606  0.26821602  0.72447332  1
  C  C107  1  0.77773921  0.29242699  0.75459043  1
  C  C108  1  0.75904396  0.31715105  0.82656409  1
  C  C109  1  0.86615284  0.21820839  0.34213701  1
  C  C110  1  0.82460827  0.69241041  0.18273166  1
  C  C111  1  0.80653614  0.74162024  0.24997932  1
  C  C112  1  0.79756590  0.68810460  0.31164110  1
  C  C113  1  0.78345552  0.76042292  0.36674807  1
  C  C114  1  0.77206326  0.72749294  0.43722444  1
  C  C115  1  0.77277058  0.62417338  0.46698234  1
  C  C116  1  0.75845763  0.62477302  0.53782402  1
  C  C117  1  0.74682496  0.72872690  0.56323218  1
  C  C118  1  0.73308367  0.76380470  0.63179123  1
  C  C119  1  0.74589302  0.86801814  0.65676982  1
  C  C120  1  0.72788289  0.87321078  0.72705928  1
  C  C121  1  0.70040052  0.77380554  0.75626432  1
  C  C122  1  0.67543446  0.75006416  0.82831353  1
  C  C123  1  0.78119223  0.86827574  0.34383567  1
  S  S124  1  0.19693692  0.32688681  0.30513095  1
  S  S125  1  0.25771424  0.17396553  0.50084667  1
  S  S126  1  0.28727945  0.11768525  0.73945936  1
  S  S127  1  0.32542653  0.80405651  0.30394473  1
  S  S128  1  0.17604284  0.74230096  0.50164365  1
  S  S129  1  0.12484519  0.71498475  0.74205725  1
  S  S130  1  0.67799467  0.29814295  0.69561829  1
  S  S131  1  0.82516404  0.24711578  0.49706933  1
  S  S132  1  0.87680202  0.20134943  0.25733946  1
  S  S133  1  0.69501827  0.67282380  0.69623899  1
  S  S134  1  0.75266961  0.82531414  0.49811941  1
  S  S135  1  0.79821149  0.88119100  0.25914648  1
  I  I136  1  0.25597686  0.97610271  0.99273238  1
  I  I137  1  0.26606545  0.49395737  0.97992055  1
  I  I138  1  0.75410397  0.05921822  0.00601687  1
  I  I139  1  0.76073497  0.48625202  0.01106464  1
  I  I140  1  0.99946664  0.26620945  0.02764748  1
  I  I141  1  0.93421074  0.76191293  0.99150542  1
  I  I142  1  0.46744262  0.23777428  0.02700834  1
  I  I143  1  0.49185716  0.73852893  0.98620807  1
  I  I144  1  0.99832323  0.02044147  0.82810625  1
  I  I145  1  0.99502062  0.98297487  0.14603392  1
  I  I146  1  0.01115043  0.48560269  0.84401839  1
  I  I147  1  0.09238455  0.54508271  0.16046855  1
  I  I148  1  0.50994253  0.01544788  0.84326367  1
  I  I149  1  0.53279026  0.91815883  0.16252371  1
  I  I150  1  0.53062514  0.48473709  0.84968079  1
  I  I151  1  0.52013431  0.50354185  0.17604337  1
  N  N152  1  0.21411230  0.28802190  0.86301356  1
  N  N153  1  0.24583815  0.30655407  0.13306547  1
  N  N154  1  0.30007947  0.78753377  0.86067653  1
  N  N155  1  0.29904799  0.74115566  0.13606928  1
  N  N156  1  0.70105805  0.26839632  0.13379438  1
  N  N157  1  0.70264096  0.22611404  0.86596786  1
  N  N158  1  0.72976728  0.70293027  0.13764735  1
  N  N159  1  0.76542539  0.69253566  0.86384356  1
