# generated using pymatgen
data_H16PbC14S3(I2N)2
_symmetry_space_group_name_H-M   'P 1'
_cell_length_a   12.65847509
_cell_length_b   12.37927791
_cell_length_c   19.35612112
_cell_angle_alpha   92.01522809
_cell_angle_beta   91.20123825
_cell_angle_gamma   91.23997989
_symmetry_Int_Tables_number   1
_chemical_formula_structural   H16PbC14S3(I2N)2
_chemical_formula_sum   'H64 Pb4 C56 S12 I16 N8'
_cell_volume   3029.85572153
_cell_formula_units_Z   4
loop_
 _symmetry_equiv_pos_site_id
 _symmetry_equiv_pos_as_xyz
  1  'x, y, z'
loop_
 _atom_site_type_symbol
 _atom_site_label
 _atom_site_symmetry_multiplicity
 _atom_site_fract_x
 _atom_site_fract_y
 _atom_site_fract_z
 _atom_site_occupancy
  H  H0  1  0.29615041  0.27359562  0.88442025  1
  H  H1  1  0.22410069  0.38105804  0.90514355  1
  H  H2  1  0.29492701  0.37944283  0.83372904  1
  H  H3  1  0.11230817  0.22895409  0.85838770  1
  H  H4  1  0.10247543  0.35170317  0.81370646  1
  H  H5  1  0.16831716  0.05827537  0.79252900  1
  H  H6  1  0.21098645  0.99327220  0.66583826  1
  H  H7  1  0.25213111  0.97418912  0.55226734  1
  H  H8  1  0.30219390  0.43546298  0.42750742  1
  H  H9  1  0.31209688  0.49386046  0.29856642  1
  H  H10  1  0.32144020  0.40836305  0.17498855  1
  H  H11  1  0.35086387  0.26922487  0.16853980  1
  H  H12  1  0.13541500  0.36237343  0.16615915  1
  H  H13  1  0.19947849  0.31372884  0.09904517  1
  H  H14  1  0.15921885  0.22744972  0.15853811  1
  H  H15  1  0.24157669  0.32475240  0.53302285  1
  H  H16  1  0.25739552  0.68747786  0.86455708  1
  H  H17  1  0.35681098  0.76033653  0.90611357  1
  H  H18  1  0.37793929  0.69832743  0.83018930  1
  H  H19  1  0.23801835  0.88393665  0.85956074  1
  H  H20  1  0.35938546  0.88906405  0.81517963  1
  H  H21  1  0.06647466  0.84141094  0.79185406  1
  H  H22  1  -0.00000857  0.79880944  0.66453336  1
  H  H23  1  0.97968053  0.74238968  0.54915867  1
  H  H24  1  0.43251265  0.70124093  0.42468624  1
  H  H25  1  0.49408823  0.69198663  0.29583581  1
  H  H26  1  0.41244258  0.67618112  0.17021800  1
  H  H27  1  0.27750181  0.63571487  0.16451096  1
  H  H28  1  0.35612509  0.86668927  0.16750640  1
  H  H29  1  0.31860015  0.79174628  0.09829029  1
  H  H30  1  0.22960046  0.82487344  0.15774404  1
  H  H31  1  0.32322339  0.75529838  0.53080852  1
  H  H32  1  0.71435173  0.18382825  0.11375070  1
  H  H33  1  0.61670097  0.27222113  0.10674741  1
  H  H34  1  0.61851076  0.18927424  0.17195514  1
  H  H35  1  0.78325945  0.36047367  0.14491670  1
  H  H36  1  0.67017187  0.38654365  0.19437578  1
  H  H37  1  0.94694962  0.30544439  0.20976277  1
  H  H38  1  0.01090063  0.27634641  0.33809694  1
  H  H39  1  0.02525417  0.23216415  0.45459642  1
  H  H40  1  0.56675891  0.20045724  0.57093302  1
  H  H41  1  0.49976089  0.17732938  0.69745805  1
  H  H42  1  0.57394345  0.14808792  0.82119687  1
  H  H43  1  0.70874661  0.11039704  0.82793245  1
  H  H44  1  0.63860642  0.33945781  0.83374784  1
  H  H45  1  0.65813564  0.26397293  0.90227582  1
  H  H46  1  0.76005455  0.29338142  0.85269813  1
  H  H47  1  0.68208641  0.25470523  0.46997913  1
  H  H48  1  0.81486819  0.72787617  0.11001951  1
  H  H49  1  0.74912468  0.61119586  0.10061214  1
  H  H50  1  0.83144311  0.63344128  0.16837500  1
  H  H51  1  0.63827822  0.76262989  0.13995307  1
  H  H52  1  0.63111476  0.64195622  0.18575218  1
  H  H53  1  0.68857289  0.94057795  0.20734753  1
  H  H54  1  0.71740068  0.00811001  0.33650899  1
  H  H55  1  0.76786229  0.02666130  0.45401563  1
  H  H56  1  0.80895459  0.56358520  0.57198027  1
  H  H57  1  0.82933398  0.49990188  0.69973781  1
  H  H58  1  0.84904583  0.57976713  0.82424433  1
  H  H59  1  0.88061644  0.71942766  0.83233706  1
  H  H60  1  0.66266460  0.62355012  0.83718356  1
  H  H61  1  0.73977689  0.67238477  0.90385092  1
  H  H62  1  0.69133918  0.75649880  0.84520575  1
  H  H63  1  0.74410613  0.67510519  0.46828908  1
  Pb  Pb64  1  0.00517425  1.00983249  1.00062762  1
  Pb  Pb65  1  0.02038475  0.52892958  0.00065097  1
  Pb  Pb66  1  0.51655003  0.99222081  0.99382157  1
  Pb  Pb67  1  0.50832582  0.49387011  0.97568548  1
  C  C68  1  0.15346619  0.28306579  0.82356885  1
  C  C69  1  0.18323991  0.22303938  0.75963794  1
  C  C70  1  0.18657501  0.11213601  0.75096546  1
  C  C71  1  0.20824780  0.07784743  0.68265002  1
  C  C72  1  0.22210376  0.16227119  0.63832583  1
  C  C73  1  0.24309625  0.15330160  0.56461324  1
  C  C74  1  0.25568839  0.05382302  0.53061980  1
  C  C75  1  0.26876922  0.20552096  0.45022170  1
  C  C76  1  0.27901858  0.26835165  0.38883679  1
  C  C77  1  0.29405211  0.37915826  0.38309805  1
  C  C78  1  0.29905358  0.41068691  0.31362854  1
  C  C79  1  0.28814862  0.32475906  0.26622014  1
  C  C80  1  0.29476218  0.32770173  0.18968238  1
  C  C81  1  0.25075656  0.23988828  0.51782017  1
  C  C82  1  0.28711012  0.84045954  0.82227608  1
  C  C83  1  0.22634390  0.81622920  0.75736315  1
  C  C84  1  0.11807345  0.82007466  0.74937976  1
  C  C85  1  0.08271021  0.79787290  0.68075015  1
  C  C86  1  0.16388193  0.77629569  0.63577682  1
  C  C87  1  0.15476982  0.75337636  0.56171615  1
  C  C88  1  0.05781218  0.74000238  0.52728825  1
  C  C89  1  0.20755512  0.72657495  0.44688279  1
  C  C90  1  0.27063282  0.71689107  0.38567398  1
  C  C91  1  0.37912115  0.70606505  0.38008703  1
  C  C92  1  0.41210764  0.70112980  0.31064716  1
  C  C93  1  0.32932454  0.70707328  0.26320385  1
  C  C94  1  0.33300017  0.69797168  0.18654416  1
  C  C95  1  0.24030143  0.74536393  0.51501951  1
  C  C96  1  0.72858824  0.32516670  0.18168185  1
  C  C97  1  0.78665965  0.29231668  0.24424436  1
  C  C98  1  0.89484043  0.29183498  0.25269664  1
  C  C99  1  0.92823483  0.27734559  0.32166322  1
  C  C100  1  0.84527781  0.26611231  0.36661521  1
  C  C101  1  0.85123916  0.24827709  0.44052048  1
  C  C102  1  0.94637974  0.23313545  0.47552468  1
  C  C103  1  0.79364855  0.22470027  0.55398301  1
  C  C104  1  0.72791274  0.21208809  0.61361347  1
  C  C105  1  0.61872806  0.20103442  0.61651422  1
  C  C106  1  0.58263274  0.18788482  0.68445815  1
  C  C107  1  0.66360131  0.18734272  0.73338651  1
  C  C108  1  0.65501510  0.17181593  0.80871550  1
  C  C109  1  0.76403613  0.24378036  0.48620891  1
  C  C110  1  0.68149738  0.71312013  0.17650398  1
  C  C111  1  0.70770142  0.77687469  0.24086999  1
  C  C112  1  0.70468101  0.88772561  0.24994723  1
  C  C113  1  0.71899822  0.92336155  0.31962303  1
  C  C114  1  0.73333995  0.83985504  0.36456646  1
  C  C115  1  0.75124949  0.84778444  0.43916944  1
  C  C116  1  0.76621214  0.94638199  0.47484275  1
  C  C117  1  0.77304113  0.79219953  0.55355758  1
  C  C118  1  0.78492246  0.72715389  0.61394235  1
  C  C119  1  0.80249703  0.61710769  0.61750042  1
  C  C120  1  0.81360852  0.58285968  0.68623661  1
  C  C121  1  0.80545513  0.66598897  0.73523198  1
  C  C122  1  0.82143392  0.66013777  0.81140152  1
  C  C123  1  0.75520836  0.75969227  0.48496320  1
  S  S124  1  0.27703117  0.06554519  0.44465969  1
  S  S125  1  0.27167037  0.20439985  0.30760865  1
  S  S126  1  0.20733139  0.28524750  0.68245560  1
  S  S127  1  0.07058897  0.71786848  0.44065722  1
  S  S128  1  0.21040830  0.71911350  0.30462483  1
  S  S129  1  0.28501868  0.78405343  0.67951659  1
  S  S130  1  0.92991838  0.21289007  0.56121263  1
  S  S131  1  0.78510202  0.20313310  0.69543515  1
  S  S132  1  0.72520236  0.27466192  0.32237062  1
  S  S133  1  0.78540541  0.93212772  0.56130043  1
  S  S134  1  0.78239459  0.78705510  0.69636006  1
  S  S135  1  0.72862556  0.71639207  0.31929208  1
  I  I136  1  0.25447028  0.97187009  0.99184520  1
  I  I137  1  0.26385110  0.51050390  0.02129169  1
  I  I138  1  0.75345781  0.05778560  0.02113643  1
  I  I139  1  0.75626552  0.46644345  0.98169897  1
  I  I140  1  0.02070507  0.27374964  0.00255844  1
  I  I141  1  0.90959275  0.76595640  0.99639563  1
  I  I142  1  0.46454583  0.24047513  0.96468576  1
  I  I143  1  0.50007600  0.74428685  0.01775415  1
  I  I144  1  0.93245618  0.02724531  0.84136169  1
  I  I145  1  0.05517565  0.03267429  0.16567493  1
  I  I146  1  0.09190523  0.57075055  0.84494579  1
  I  I147  1  0.02559225  0.54656207  0.16970911  1
  I  I148  1  0.56951142  0.90386226  0.83749331  1
  I  I149  1  0.47228010  0.03658428  0.16131155  1
  I  I150  1  0.49913165  0.49521732  0.80369524  1
  I  I151  1  0.51752227  0.47588101  0.13475309  1
  N  N152  1  0.24786050  0.33168348  0.86393905  1
  N  N153  1  0.19082473  0.30522059  0.15171157  1
  N  N154  1  0.32229628  0.74003425  0.85815128  1
  N  N155  1  0.30658233  0.80136707  0.15097587  1
  N  N156  1  0.66688087  0.23722831  0.14212923  1
  N  N157  1  0.68063217  0.27406179  0.85160901  1
  N  N158  1  0.77474032  0.66934409  0.13757450  1
  N  N159  1  0.72265082  0.67924905  0.85166716  1
