# generated using pymatgen
data_H6PbC3S(I2N)2
_symmetry_space_group_name_H-M   'P 1'
_cell_length_a   11.99793511
_cell_length_b   11.98644571
_cell_length_c   10.07523447
_cell_angle_alpha   91.05620319
_cell_angle_beta   92.21458893
_cell_angle_gamma   94.26311269
_symmetry_Int_Tables_number   1
_chemical_formula_structural   H6PbC3S(I2N)2
_chemical_formula_sum   'H24 Pb4 C12 S4 I16 N8'
_cell_volume   1443.52742973
_cell_formula_units_Z   4
loop_
 _symmetry_equiv_pos_site_id
 _symmetry_equiv_pos_as_xyz
  1  'x, y, z'
loop_
 _atom_site_type_symbol
 _atom_site_label
 _atom_site_symmetry_multiplicity
 _atom_site_fract_x
 _atom_site_fract_y
 _atom_site_fract_z
 _atom_site_occupancy
  H  H0  1  0.33673484  0.28235137  0.73072792  1
  H  H1  1  0.20505125  0.22304132  0.75208712  1
  H  H2  1  0.31205302  0.13933468  0.72405037  1
  H  H3  1  0.21082801  0.39399383  0.54387598  1
  H  H4  1  0.22374226  0.36525748  0.27960268  1
  H  H5  1  0.28010278  0.17522845  0.22580360  1
  H  H6  1  0.22839473  0.68455090  0.77564669  1
  H  H7  1  0.28186416  0.81797853  0.74287996  1
  H  H8  1  0.14293288  0.78828043  0.73569642  1
  H  H9  1  0.40518157  0.71203177  0.55963627  1
  H  H10  1  0.36248254  0.70401780  0.29514569  1
  H  H11  1  0.16144428  0.72400068  0.24458223  1
  H  H12  1  0.71156284  0.17759043  0.25397428  1
  H  H13  1  0.76459107  0.31198765  0.22546637  1
  H  H14  1  0.85117064  0.20813540  0.26314457  1
  H  H15  1  0.59331602  0.30240845  0.43629382  1
  H  H16  1  0.63207729  0.30581125  0.70130908  1
  H  H17  1  0.82601138  0.26413364  0.75585785  1
  H  H18  1  0.80868598  0.78010130  0.24733707  1
  H  H19  1  0.67597151  0.72040966  0.26152412  1
  H  H20  1  0.69886701  0.86183945  0.27344389  1
  H  H21  1  0.77692244  0.59958224  0.45339352  1
  H  H22  1  0.76270466  0.63098071  0.71769264  1
  H  H23  1  0.73114678  0.82805785  0.77045512  1
  Pb  Pb24  1  0.99993844  0.01089803  0.99727713  1
  Pb  Pb25  1  0.98899885  0.50283657  0.00386372  1
  Pb  Pb26  1  0.49584348  0.99017456  0.00278231  1
  Pb  Pb27  1  0.49260951  0.50327086  0.00367633  1
  C  C28  1  0.26171093  0.22268117  0.55638888  1
  C  C29  1  0.23263015  0.31815196  0.49344965  1
  C  C30  1  0.23834255  0.30408537  0.35553325  1
  C  C31  1  0.22631861  0.73414672  0.57408122  1
  C  C32  1  0.32410541  0.71935273  0.51017184  1
  C  C33  1  0.30322477  0.71481486  0.37259664  1
  C  C34  1  0.76691364  0.25922371  0.42485497  1
  C  C35  1  0.67171794  0.28586578  0.48721965  1
  C  C36  1  0.69104258  0.28919453  0.62512105  1
  C  C37  1  0.74554272  0.77658675  0.44046911  1
  C  C38  1  0.76337421  0.67809795  0.50374759  1
  C  C39  1  0.75831617  0.69365398  0.64147532  1
  S  S40  1  0.29175721  0.11739820  0.44848206  1
  S  S41  1  0.11244486  0.73923582  0.46787371  1
  S  S42  1  0.87700951  0.23854324  0.53272344  1
  S  S43  1  0.72744177  0.88621774  0.54768313  1
  I  I44  1  0.25067545  0.94847224  0.10926383  1
  I  I45  1  0.25274446  0.60397124  0.00798067  1
  I  I46  1  0.74957267  0.05205082  0.89579375  1
  I  I47  1  0.73883905  0.39746915  0.99150089  1
  I  I48  1  0.07416048  0.26137512  0.92291686  1
  I  I49  1  0.95347986  0.75470949  0.10415344  1
  I  I50  1  0.42326540  0.23833421  0.02888692  1
  I  I51  1  0.60515901  0.74832198  0.97313752  1
  I  I52  1  0.03916320  0.95861672  0.69351143  1
  I  I53  1  0.97286750  0.06265911  0.31164317  1
  I  I54  1  0.99181079  0.54581139  0.69403318  1
  I  I55  1  -0.00256163  0.45598570  0.31021382  1
  I  I56  1  0.42296177  0.97707668  0.69184846  1
  I  I57  1  0.57923687  0.01483261  0.30928827  1
  I  I58  1  0.45239376  0.46351795  0.69203896  1
  I  I59  1  0.53832016  0.53948496  0.31319659  1
  N  N60  1  0.27843467  0.21503685  0.69804424  1
  N  N61  1  0.26723587  0.20263582  0.32167153  1
  N  N62  1  0.21913439  0.75438140  0.71484154  1
  N  N63  1  0.19557428  0.72509432  0.34027736  1
  N  N64  1  0.77388187  0.24099548  0.28380248  1
  N  N65  1  0.79580388  0.26817996  0.65918972  1
  N  N66  1  0.73279161  0.78605374  0.29884594  1
  N  N67  1  0.74216619  0.79916243  0.67482116  1
