# generated using pymatgen
data_H7PbC3SI4N3
_symmetry_space_group_name_H-M   'P 1'
_cell_length_a   12.20539092
_cell_length_b   12.12525924
_cell_length_c   10.48790337
_cell_angle_alpha   86.71260223
_cell_angle_beta   86.48664296
_cell_angle_gamma   89.02885774
_symmetry_Int_Tables_number   1
_chemical_formula_structural   H7PbC3SI4N3
_chemical_formula_sum   'H28 Pb4 C12 S4 I16 N12'
_cell_volume   1546.53474665
_cell_formula_units_Z   4
loop_
 _symmetry_equiv_pos_site_id
 _symmetry_equiv_pos_as_xyz
  1  'x, y, z'
loop_
 _atom_site_type_symbol
 _atom_site_label
 _atom_site_symmetry_multiplicity
 _atom_site_fract_x
 _atom_site_fract_y
 _atom_site_fract_z
 _atom_site_occupancy
  H  H0  1  0.27726556  0.27212559  0.82663743  1
  H  H1  1  0.33986093  0.18824679  0.72293301  1
  H  H2  1  0.36259510  0.32712717  0.70922910  1
  H  H3  1  0.17650357  0.37076583  0.66134886  1
  H  H4  1  0.14211249  0.22811161  0.68584983  1
  H  H5  1  0.25307326  0.08253733  0.51583976  1
  H  H6  1  0.27476539  0.28630420  0.18913805  1
  H  H7  1  0.27180722  0.71982705  0.82638923  1
  H  H8  1  0.17964273  0.66912639  0.73103641  1
  H  H9  1  0.31331078  0.62861493  0.71829795  1
  H  H10  1  0.37531144  0.80988901  0.64753997  1
  H  H11  1  0.23823613  0.86225020  0.66761349  1
  H  H12  1  0.08192406  0.76872546  0.51415102  1
  H  H13  1  0.27976683  0.71527606  0.19223025  1
  H  H14  1  0.73135955  0.20665775  0.17441087  1
  H  H15  1  0.80869479  0.13964988  0.28214131  1
  H  H16  1  0.67159964  0.11994373  0.28861941  1
  H  H17  1  0.62746193  0.30521732  0.34216002  1
  H  H18  1  0.76707122  0.34348213  0.31390729  1
  H  H19  1  0.91835070  0.24298338  0.48493092  1
  H  H20  1  0.71598987  0.20924142  0.81104366  1
  H  H21  1  0.79879234  0.73854272  0.17015124  1
  H  H22  1  0.85395882  0.82014057  0.27433174  1
  H  H23  1  0.88348648  0.68130956  0.27604231  1
  H  H24  1  0.70253810  0.62899261  0.34414192  1
  H  H25  1  0.65610903  0.76911864  0.32564257  1
  H  H26  1  0.73679465  0.91983175  0.48881751  1
  H  H27  1  0.79590992  0.71570611  0.80389268  1
  Pb  Pb28  1  0.00621108  0.00436948  0.98789376  1
  Pb  Pb29  1  0.99619144  0.49304317  0.01113922  1
  Pb  Pb30  1  0.49573818  0.99893805  0.01680517  1
  Pb  Pb31  1  0.50681879  0.50666626  0.98828791  1
  C  C32  1  0.20701308  0.28591842  0.64915792  1
  C  C33  1  0.23514457  0.26466243  0.51190575  1
  C  C34  1  0.25435905  0.16139786  0.46086786  1
  C  C35  1  0.28874478  0.79001091  0.63958612  1
  C  C36  1  0.26369655  0.76383515  0.50702530  1
  C  C37  1  0.15940236  0.75676446  0.45956593  1
  C  C38  1  0.71246979  0.27633954  0.35213201  1
  C  C39  1  0.73652221  0.25025836  0.48881192  1
  C  C40  1  0.83989194  0.23794215  0.53963121  1
  C  C41  1  0.72484703  0.71522577  0.35460754  1
  C  C42  1  0.74805101  0.73745672  0.48916960  1
  C  C43  1  0.75051682  0.84122044  0.54082626  1
  S  S44  1  0.24217244  0.36428239  0.39196559  1
  S  S45  1  0.36056166  0.74031061  0.38928287  1
  S  S46  1  0.63773755  0.23539797  0.60854451  1
  S  S47  1  0.77651638  0.63820581  0.60272681  1
  I  I48  1  0.24428901  0.09439856  0.01618299  1
  I  I49  1  0.25406927  0.43752002  0.00941071  1
  I  I50  1  0.74652603  0.93456252  0.98999668  1
  I  I51  1  0.75206974  0.58850790  0.99536660  1
  I  I52  1  0.90641958  0.25392841  0.99278695  1
  I  I53  1  0.06566466  0.74770084  0.01415425  1
  I  I54  1  0.56654029  0.25149228  0.99439232  1
  I  I55  1  0.41113146  0.75285763  0.99834235  1
  I  I56  1  0.05227699  0.00055887  0.69013333  1
  I  I57  1  0.95358691  0.99503422  0.30965386  1
  I  I58  1  0.02533140  0.53671731  0.70064309  1
  I  I59  1  0.95949203  0.48510077  0.32125373  1
  I  I60  1  0.47688617  0.02371241  0.71063157  1
  I  I61  1  0.52255747  0.98398513  0.32662673  1
  I  I62  1  0.47561308  0.50393647  0.66869225  1
  I  I63  1  0.49589491  0.49805515  0.28565680  1
  N  N64  1  0.30290464  0.26663433  0.73062360  1
  N  N65  1  0.27221146  0.16447499  0.33365209  1
  N  N66  1  0.26795071  0.26625016  0.28735670  1
  N  N67  1  0.26049189  0.69626657  0.73410905  1
  N  N68  1  0.15976382  0.73502413  0.33598801  1
  N  N69  1  0.26062224  0.72340237  0.28962302  1
  N  N70  1  0.73250755  0.18012262  0.27038080  1
  N  N71  1  0.83742863  0.22043394  0.66670424  1
  N  N72  1  0.73577804  0.21720944  0.71316559  1
  N  N73  1  0.82162035  0.74127104  0.26380684  1
  N  N74  1  0.77101711  0.83859528  0.66492105  1
  N  N75  1  0.78576719  0.73694394  0.70734362  1
