# generated using pymatgen
data_H7PbC3SI4N3
_symmetry_space_group_name_H-M   'P 1'
_cell_length_a   12.31465769
_cell_length_b   12.10697753
_cell_length_c   10.53535944
_cell_angle_alpha   94.30202485
_cell_angle_beta   93.05812591
_cell_angle_gamma   90.17749696
_symmetry_Int_Tables_number   1
_chemical_formula_structural   H7PbC3SI4N3
_chemical_formula_sum   'H28 Pb4 C12 S4 I16 N12'
_cell_volume   1564.05539831
_cell_formula_units_Z   4
loop_
 _symmetry_equiv_pos_site_id
 _symmetry_equiv_pos_as_xyz
  1  'x, y, z'
loop_
 _atom_site_type_symbol
 _atom_site_label
 _atom_site_symmetry_multiplicity
 _atom_site_fract_x
 _atom_site_fract_y
 _atom_site_fract_z
 _atom_site_occupancy
  H  H0  1  0.25967994  0.23776556  0.82619151  1
  H  H1  1  0.18809465  0.31936904  0.72804535  1
  H  H2  1  0.32353031  0.32192433  0.73124555  1
  H  H3  1  0.17963611  0.12502111  0.64582492  1
  H  H4  1  0.32364813  0.11884745  0.65685793  1
  H  H5  1  0.24807677  0.41302699  0.31784454  1
  H  H6  1  0.26895849  0.23130995  0.19023645  1
  H  H7  1  0.22856462  0.73863575  0.81864242  1
  H  H8  1  0.31640630  0.80106449  0.72734398  1
  H  H9  1  0.30755115  0.66196836  0.71919619  1
  H  H10  1  0.12229812  0.81251003  0.65177193  1
  H  H11  1  0.11966694  0.66458440  0.63458533  1
  H  H12  1  0.41862987  0.73150107  0.31691750  1
  H  H13  1  0.24612972  0.75329862  0.18581289  1
  H  H14  1  0.76332062  0.26408882  0.18388605  1
  H  H15  1  0.68595090  0.34223243  0.28376072  1
  H  H16  1  0.67465148  0.20257796  0.27522414  1
  H  H17  1  0.87416535  0.33500299  0.36754962  1
  H  H18  1  0.86834698  0.18746535  0.34936910  1
  H  H19  1  0.57520196  0.27003899  0.68719823  1
  H  H20  1  0.74939636  0.24859111  0.81679533  1
  H  H21  1  0.74822757  0.76019342  0.17421751  1
  H  H22  1  0.68368720  0.67587439  0.26921339  1
  H  H23  1  0.81919074  0.67905749  0.27308644  1
  H  H24  1  0.68138270  0.87824625  0.34311161  1
  H  H25  1  0.82536102  0.87487527  0.35460425  1
  H  H26  1  0.75493342  0.58320413  0.67991399  1
  H  H27  1  0.73822139  0.76423510  0.80950715  1
  Pb  Pb28  1  0.00565758  0.00415293  0.00084785  1
  Pb  Pb29  1  0.00782032  0.49419877  0.00145001  1
  Pb  Pb30  1  0.50822387  0.99736378  0.99535243  1
  Pb  Pb31  1  0.50576298  0.50921920  0.99307938  1
  C  C32  1  0.25446631  0.17432140  0.63710489  1
  C  C33  1  0.25767211  0.21527965  0.50761363  1
  C  C34  1  0.25348678  0.33443121  0.36159117  1
  C  C35  1  0.17205608  0.73828022  0.62936131  1
  C  C36  1  0.21690911  0.74080434  0.50102840  1
  C  C37  1  0.33964721  0.73790165  0.35841334  1
  C  C38  1  0.81999421  0.26255680  0.37258159  1
  C  C39  1  0.77572207  0.26039473  0.50116625  1
  C  C40  1  0.65373625  0.26363679  0.64470513  1
  C  C41  1  0.75157462  0.82404918  0.36314682  1
  C  C42  1  0.74841093  0.78263728  0.49243609  1
  C  C43  1  0.75063025  0.66218209  0.63695485  1
  S  S44  1  0.27320439  0.12929594  0.37339692  1
  S  S45  1  0.13672766  0.75508504  0.36535063  1
  S  S46  1  0.85659889  0.24619825  0.63637539  1
  S  S47  1  0.73472990  0.86789958  0.62759940  1
  I  I48  1  0.25385124  0.08079337  0.99617890  1
  I  I49  1  0.25719956  0.43848319  0.04594341  1
  I  I50  1  0.75472193  0.91368307  0.00330766  1
  I  I51  1  0.75471494  0.56112556  0.95330804  1
  I  I52  1  0.90308664  0.24763860  0.00808786  1
  I  I53  1  0.07874184  0.74902172  0.99179661  1
  I  I54  1  0.55263385  0.25126357  0.96385976  1
  I  I55  1  0.42027839  0.75743612  0.02831156  1
  I  I56  1  1.00017651  0.99417441  0.69565343  1
  I  I57  1  0.00259335  0.01383449  0.30514201  1
  I  I58  1  0.04153598  0.46178393  0.69996261  1
  I  I59  1  0.96392896  0.53034871  0.30161147  1
  I  I60  1  0.46224333  0.95026550  0.69165226  1
  I  I61  1  0.54288998  0.04465287  0.30019628  1
  I  I62  1  0.44099182  0.49707881  0.69376423  1
  I  I63  1  0.55863919  0.51387294  0.29680276  1
  N  N64  1  0.25691365  0.26853718  0.73645080  1
  N  N65  1  0.24844635  0.32193796  0.48572562  1
  N  N66  1  0.26629035  0.24019776  0.28895088  1
  N  N67  1  0.26165161  0.73471823  0.72940196  1
  N  N68  1  0.32276254  0.73252697  0.48161811  1
  N  N69  1  0.24940411  0.75076023  0.28411711  1
  N  N70  1  0.73016595  0.26851657  0.27320511  1
  N  N71  1  0.66997867  0.26882146  0.52126918  1
  N  N72  1  0.74425546  0.25071394  0.71836512  1
  N  N73  1  0.75049551  0.72970430  0.26410090  1
  N  N74  1  0.75570106  0.67555260  0.51305653  1
  N  N75  1  0.73976967  0.75615346  0.71065030  1
