# generated using pymatgen
data_H18PbC16S2(I2N)2
_symmetry_space_group_name_H-M   'P 1'
_cell_length_a   12.32235268
_cell_length_b   12.38319528
_cell_length_c   20.39890644
_cell_angle_alpha   94.81207862
_cell_angle_beta   90.94191840
_cell_angle_gamma   91.40547017
_symmetry_Int_Tables_number   1
_chemical_formula_structural   H18PbC16S2(I2N)2
_chemical_formula_sum   'H72 Pb4 C64 S8 I16 N8'
_cell_volume   3100.23193519
_cell_formula_units_Z   4
loop_
 _symmetry_equiv_pos_site_id
 _symmetry_equiv_pos_as_xyz
  1  'x, y, z'
loop_
 _atom_site_type_symbol
 _atom_site_label
 _atom_site_symmetry_multiplicity
 _atom_site_fract_x
 _atom_site_fract_y
 _atom_site_fract_z
 _atom_site_occupancy
  H  H0  1  0.26247862  0.30249157  0.90757872  1
  H  H1  1  0.28482230  0.18022182  0.87077931  1
  H  H2  1  0.34010306  0.29448296  0.84103800  1
  H  H3  1  0.15982368  0.35898651  0.81941686  1
  H  H4  1  0.10429879  0.23733098  0.84708769  1
  H  H5  1  0.12441287  0.05067991  0.77059990  1
  H  H6  1  0.30538290  0.07083505  0.54586569  1
  H  H7  1  0.34004882  0.10503908  0.43055831  1
  H  H8  1  0.32704554  0.46362545  0.38862914  1
  H  H9  1  0.39969120  0.22357582  0.16607586  1
  H  H10  1  0.30753914  0.12151270  0.18878584  1
  H  H11  1  0.24755326  0.32377579  0.12845457  1
  H  H12  1  0.15986194  0.22727312  0.15365156  1
  H  H13  1  0.24712085  0.19747088  0.09336082  1
  H  H14  1  0.26207476  0.12841684  0.31050205  1
  H  H15  1  0.18150982  0.41129901  0.46025520  1
  H  H16  1  0.14726673  0.37733033  0.57583016  1
  H  H17  1  0.23200285  0.35525731  0.69617338  1
  H  H18  1  0.29552211  0.73193622  0.90278351  1
  H  H19  1  0.17014087  0.70860575  0.87054443  1
  H  H20  1  0.27789878  0.65674868  0.83146601  1
  H  H21  1  0.34976599  0.84295457  0.81951314  1
  H  H22  1  0.22718327  0.89130634  0.85492998  1
  H  H23  1  0.03820373  0.84195509  0.78538228  1
  H  H24  1  0.06210563  0.68343213  0.54486985  1
  H  H25  1  0.10190489  0.65413298  0.42680635  1
  H  H26  1  0.46716836  0.69427490  0.37827735  1
  H  H27  1  0.23443626  0.60239503  0.15802630  1
  H  H28  1  0.12902337  0.68539433  0.18926771  1
  H  H29  1  0.32923753  0.75798841  0.12290127  1
  H  H30  1  0.24356744  0.84354038  0.16088735  1
  H  H31  1  0.20012158  0.75903472  0.09693623  1
  H  H32  1  0.13061025  0.72469403  0.31306243  1
  H  H33  1  0.41085753  0.82184591  0.46214359  1
  H  H34  1  0.37099671  0.85134972  0.58026214  1
  H  H35  1  0.34913425  0.78441113  0.69168009  1
  H  H36  1  0.69159416  0.23319641  0.09645409  1
  H  H37  1  0.82201787  0.22958206  0.11664103  1
  H  H38  1  0.73071529  0.15942831  0.15778953  1
  H  H39  1  0.64470463  0.33976774  0.19108649  1
  H  H40  1  0.76419309  0.39840106  0.16028741  1
  H  H41  1  0.95887462  0.36069316  0.22325595  1
  H  H42  1  0.93823246  0.19464367  0.44732215  1
  H  H43  1  0.90046393  0.16296019  0.56239315  1
  H  H44  1  0.53745244  0.18102512  0.61635502  1
  H  H45  1  0.77154921  0.10439385  0.82771852  1
  H  H46  1  0.87764657  0.19160545  0.80461906  1
  H  H47  1  0.67805186  0.25349673  0.87849335  1
  H  H48  1  0.76328628  0.34465501  0.84836212  1
  H  H49  1  0.80626926  0.26241066  0.90420845  1
  H  H50  1  0.87414147  0.23410647  0.68432775  1
  H  H51  1  0.59179871  0.31625570  0.54571716  1
  H  H52  1  0.62968404  0.34832683  0.43064909  1
  H  H53  1  0.65078689  0.27813383  0.31155077  1
  H  H54  1  0.74865858  0.70579858  0.08999966  1
  H  H55  1  0.77242488  0.82866180  0.12726503  1
  H  H56  1  0.83232424  0.71711343  0.15479609  1
  H  H57  1  0.65582038  0.64168177  0.18050289  1
  H  H58  1  0.59477661  0.75922941  0.15378294  1
  H  H59  1  0.64346374  0.95359124  0.22555458  1
  H  H60  1  0.80888787  0.93690441  0.45709655  1
  H  H61  1  0.84118403  0.90220779  0.57291074  1
  H  H62  1  0.81566821  0.54121291  0.61203554  1
  H  H63  1  0.89941632  0.77538303  0.83689032  1
  H  H64  1  0.81495321  0.87993503  0.81359068  1
  H  H65  1  0.73959371  0.67871476  0.87242165  1
  H  H66  1  0.65966367  0.78009704  0.84774773  1
  H  H67  1  0.75119338  0.80416217  0.90799413  1
  H  H68  1  0.76615432  0.87485883  0.69083196  1
  H  H69  1  0.67911095  0.58987402  0.53691305  1
  H  H70  1  0.64749986  0.62396320  0.42092925  1
  H  H71  1  0.71836971  0.64764564  0.30539731  1
  Pb  Pb72  1  0.01424117  1.00422517  0.02433408  1
  Pb  Pb73  1  0.99049663  0.50694238  0.00289464  1
  Pb  Pb74  1  0.50418651  0.98656913  0.99297433  1
  Pb  Pb75  1  0.48926093  0.48815631  0.98218821  1
  C  C76  1  0.17146029  0.27161087  0.82002345  1
  C  C77  1  0.17802417  0.21722619  0.75190395  1
  C  C78  1  0.15237029  0.10860320  0.73695232  1
  C  C79  1  0.20357694  0.20093706  0.63791360  1
  C  C80  1  0.22543203  0.22233332  0.56978372  1
  C  C81  1  0.27781526  0.14571438  0.52708492  1
  C  C82  1  0.29686601  0.16481924  0.46189383  1
  C  C83  1  0.26446211  0.26172874  0.43692289  1
  C  C84  1  0.28792060  0.28761637  0.36938029  1
  C  C85  1  0.31640980  0.39163950  0.35467897  1
  C  C86  1  0.31079571  0.26327093  0.25515714  1
  C  C87  1  0.32013534  0.20920118  0.18764638  1
  C  C88  1  0.28481528  0.21415093  0.31137571  1
  C  C89  1  0.21075599  0.33747994  0.47944904  1
  C  C90  1  0.19163184  0.31857799  0.54450630  1
  C  C91  1  0.20714684  0.27002462  0.69489070  1
  C  C92  1  0.26224988  0.82587876  0.82280074  1
  C  C93  1  0.20776724  0.81364785  0.75643742  1
  C  C94  1  0.09685051  0.82058382  0.74764677  1
  C  C95  1  0.19115315  0.78497295  0.64168275  1
  C  C96  1  0.21436393  0.76769165  0.57168653  1
  C  C97  1  0.13878648  0.71428870  0.52675444  1
  C  C98  1  0.16122867  0.69793782  0.46005622  1
  C  C99  1  0.26058418  0.73420608  0.43563916  1
  C  C100  1  0.28964335  0.71498508  0.36609878  1
  C  C101  1  0.39576629  0.69873800  0.34677243  1
  C  C102  1  0.26997424  0.69461831  0.25105160  1
  C  C103  1  0.21738332  0.68100175  0.18455361  1
  C  C104  1  0.21776540  0.71238561  0.31021763  1
  C  C105  1  0.33512799  0.78945191  0.48048229  1
  C  C106  1  0.31283062  0.80601178  0.54700559  1
  C  C107  1  0.26165465  0.79334268  0.69553988  1
  C  C108  1  0.73215182  0.32924241  0.18517982  1
  C  C109  1  0.78987795  0.31931731  0.24938992  1
  C  C110  1  0.90065701  0.33574799  0.25877654  1
  C  C111  1  0.80891684  0.29295524  0.36165706  1
  C  C112  1  0.78654587  0.27299930  0.42988912  1
  C  C113  1  0.86231348  0.22240058  0.46894596  1
  C  C114  1  0.84092073  0.20456812  0.53408287  1
  C  C115  1  0.74233320  0.23614374  0.56282231  1
  C  C116  1  0.71451614  0.21460498  0.63052611  1
  C  C117  1  0.60909834  0.19039491  0.64830861  1
  C  C118  1  0.73613624  0.19347601  0.74333392  1
  C  C119  1  0.78930925  0.18307543  0.80844984  1
  C  C120  1  0.78718291  0.21605286  0.68599894  1
  C  C121  1  0.66723705  0.28780514  0.52387608  1
  C  C122  1  0.68849771  0.30586684  0.45895034  1
  C  C123  1  0.73776159  0.29490646  0.30849004  1
  C  C124  1  0.66599485  0.72967859  0.17933101  1
  C  C125  1  0.68002693  0.78597256  0.24694489  1
  C  C126  1  0.66744106  0.89614836  0.26021432  1
  C  C127  1  0.70601264  0.80458916  0.36159870  1
  C  C128  1  0.72601454  0.78323340  0.43012068  1
  C  C129  1  0.77909328  0.86099325  0.47472115  1
  C  C130  1  0.79706689  0.84144434  0.54019428  1
  C  C131  1  0.76277830  0.74285440  0.56370386  1
  C  C132  1  0.78363002  0.71645069  0.63166257  1
  C  C133  1  0.80666011  0.61215006  0.64639732  1
  C  C134  1  0.80633555  0.73865142  0.74660006  1
  C  C135  1  0.82048895  0.79186320  0.81452387  1
  C  C136  1  0.78357429  0.78886663  0.69006833  1
  C  C137  1  0.70916224  0.66548408  0.51913155  1
  C  C138  1  0.69115894  0.68482918  0.45381079  1
  C  C139  1  0.70251217  0.73385115  0.30522087  1
  S  S140  1  0.16347145  0.07134375  0.65513732  1
  S  S141  1  0.34092331  0.39981718  0.27326723  1
  S  S142  1  0.05854623  0.80214258  0.66689317  1
  S  S143  1  0.40774511  0.68032794  0.26363594  1
  S  S144  1  0.94035633  0.32178732  0.33786593  1
  S  S145  1  0.59872254  0.16839534  0.72917455  1
  S  S146  1  0.68127708  0.93547607  0.34190913  1
  S  S147  1  0.82912234  0.60236389  0.72806836  1
  I  I148  1  0.26279020  0.07311972  0.98828214  1
  I  I149  1  0.23358202  0.43009463  0.00987059  1
  I  I150  1  0.75933877  0.94172525  0.02085509  1
  I  I151  1  0.73665448  0.56952994  0.98227243  1
  I  I152  1  0.92886629  0.25770017  0.01187479  1
  I  I153  1  0.07184264  0.75849380  1.00037435  1
  I  I154  1  0.57122465  0.23802771  0.98982115  1
  I  I155  1  0.42623219  0.73511584  0.99595599  1
  I  I156  1  0.99389551  0.01719604  0.87352920  1
  I  I157  1  0.05015631  0.02523674  0.18168259  1
  I  I158  1  0.00177417  0.51473018  0.84991371  1
  I  I159  1  0.94874772  0.55714680  0.15910925  1
  I  I160  1  0.54998551  0.95149364  0.83671189  1
  I  I161  1  0.47070372  0.97452059  0.14490225  1
  I  I162  1  0.45093040  0.47171465  0.82137331  1
  I  I163  1  0.48730484  0.47888553  0.13396093  1
  N  N164  1  0.27207125  0.25967157  0.86167129  1
  N  N165  1  0.23782183  0.24355510  0.13837279  1
  N  N166  1  0.24994412  0.72426124  0.85860292  1
  N  N167  1  0.25049618  0.76572688  0.13919755  1
  N  N168  1  0.74483306  0.23088878  0.13678472  1
  N  N169  1  0.75656367  0.26687050  0.86245024  1
  N  N170  1  0.76114015  0.74809075  0.13597671  1
  N  N171  1  0.73720203  0.75949029  0.86292617  1
