# generated using pymatgen
data_H20PbC18S(I2N)2
_symmetry_space_group_name_H-M   'P 1'
_cell_length_a   12.52361329
_cell_length_b   12.52410054
_cell_length_c   20.74323933
_cell_angle_alpha   90.97882028
_cell_angle_beta   91.13657580
_cell_angle_gamma   89.13391975
_symmetry_Int_Tables_number   1
_chemical_formula_structural   H20PbC18S(I2N)2
_chemical_formula_sum   'H80 Pb4 C72 S4 I16 N8'
_cell_volume   3252.04457311
_cell_formula_units_Z   4
loop_
 _symmetry_equiv_pos_site_id
 _symmetry_equiv_pos_as_xyz
  1  'x, y, z'
loop_
 _atom_site_type_symbol
 _atom_site_label
 _atom_site_symmetry_multiplicity
 _atom_site_fract_x
 _atom_site_fract_y
 _atom_site_fract_z
 _atom_site_occupancy
  H  H0  1  0.31675667  0.13261404  0.84261621  1
  H  H1  1  0.26331664  0.18193971  0.90925356  1
  H  H2  1  0.33857892  0.25916522  0.86447071  1
  H  H3  1  0.12062429  0.17681260  0.83643706  1
  H  H4  1  0.15773673  0.31327199  0.84589621  1
  H  H5  1  0.15378000  0.07722891  0.73421199  1
  H  H6  1  0.17970188  0.08718439  0.61658339  1
  H  H7  1  0.16061264  0.41297759  0.53850096  1
  H  H8  1  0.19235878  0.42682793  0.42212545  1
  H  H9  1  0.28330297  0.12905161  0.30286370  1
  H  H10  1  0.33436711  0.11164611  0.17755860  1
  H  H11  1  0.38730076  0.22532381  0.14059697  1
  H  H12  1  0.20716431  0.29391884  0.12273967  1
  H  H13  1  0.22405166  0.17091134  0.09046595  1
  H  H14  1  0.15535631  0.18634895  0.15836090  1
  H  H15  1  0.36140790  0.41867585  0.20018994  1
  H  H16  1  0.36253948  0.12517952  0.42416953  1
  H  H17  1  0.32847313  0.11010100  0.54049224  1
  H  H18  1  0.26524258  0.41834830  0.63881068  1
  H  H19  1  0.24045001  0.40797858  0.75638016  1
  H  H20  1  0.14737953  0.67457899  0.83595195  1
  H  H21  1  0.19628053  0.72386471  0.90440145  1
  H  H22  1  0.27747818  0.65484514  0.85307848  1
  H  H23  1  0.18185107  0.87339250  0.83964520  1
  H  H24  1  0.31972996  0.83745520  0.84571432  1
  H  H25  1  0.07984876  0.84414938  0.73605902  1
  H  H26  1  0.08806895  0.82053541  0.61729313  1
  H  H27  1  0.41358452  0.84196952  0.54048735  1
  H  H28  1  0.43079605  0.81171555  0.42345027  1
  H  H29  1  0.13386645  0.71339422  0.30208972  1
  H  H30  1  0.11533437  0.67264897  0.17700772  1
  H  H31  1  0.22577993  0.61199181  0.13854988  1
  H  H32  1  0.29582758  0.78893382  0.11870509  1
  H  H33  1  0.17282002  0.77228240  0.08702372  1
  H  H34  1  0.18758261  0.84677451  0.15407853  1
  H  H35  1  0.42613645  0.65285525  0.19506661  1
  H  H36  1  0.13339751  0.64243541  0.41838272  1
  H  H37  1  0.11518767  0.67498797  0.53556206  1
  H  H38  1  0.42256386  0.73722179  0.63499651  1
  H  H39  1  0.41397452  0.76117284  0.75340530  1
  H  H40  1  0.87166846  0.19702684  0.16403405  1
  H  H41  1  0.82191203  0.24365535  0.09537506  1
  H  H42  1  0.74519281  0.16682699  0.14209685  1
  H  H43  1  0.81358127  0.39025625  0.16574455  1
  H  H44  1  0.68113236  0.34216157  0.15487366  1
  H  H45  1  0.91802186  0.34825498  0.26765796  1
  H  H46  1  0.90789213  0.32034752  0.38536897  1
  H  H47  1  0.58131781  0.34176296  0.46232174  1
  H  H48  1  0.56829343  0.31020670  0.57882307  1
  H  H49  1  0.86886979  0.21883089  0.69650942  1
  H  H50  1  0.88987247  0.17466574  0.82063628  1
  H  H51  1  0.78042011  0.11837608  0.85930996  1
  H  H52  1  0.70998890  0.29326967  0.88348368  1
  H  H53  1  0.83661052  0.28022150  0.91024016  1
  H  H54  1  0.81034240  0.35227757  0.84482329  1
  H  H55  1  0.58057500  0.15203540  0.80285482  1
  H  H56  1  0.87066441  0.14103259  0.57709527  1
  H  H57  1  0.88484622  0.17510775  0.46054264  1
  H  H58  1  0.57400969  0.24536024  0.36264594  1
  H  H59  1  0.58456694  0.27392991  0.24536409  1
  H  H60  1  0.76490362  0.88035303  0.15440832  1
  H  H61  1  0.72305821  0.81287984  0.08995288  1
  H  H62  1  0.81331498  0.75693103  0.14025822  1
  H  H63  1  0.58766198  0.81296505  0.16730614  1
  H  H64  1  0.63828527  0.68051001  0.15541309  1
  H  H65  1  0.64385826  0.91975794  0.26657475  1
  H  H66  1  0.68018003  0.90907914  0.38400211  1
  H  H67  1  0.66179581  0.58375104  0.46049970  1
  H  H68  1  0.69302083  0.57105447  0.57778818  1
  H  H69  1  0.77590728  0.86905259  0.69701842  1
  H  H70  1  0.80808324  0.88753142  0.82431577  1
  H  H71  1  0.87619852  0.78046916  0.86221497  1
  H  H72  1  0.70629687  0.69465547  0.87829243  1
  H  H73  1  0.71327463  0.81712799  0.91168437  1
  H  H74  1  0.63989352  0.80088092  0.84465811  1
  H  H75  1  0.85042745  0.58008532  0.80485288  1
  H  H76  1  0.85990628  0.86972151  0.57854363  1
  H  H77  1  0.82672298  0.88337080  0.46107820  1
  H  H78  1  0.76026590  0.57435639  0.36170212  1
  H  H79  1  0.72338966  0.58512900  0.24443820  1
  Pb  Pb80  1  0.00665531  0.00014318  0.00893128  1
  Pb  Pb81  1  1.00300931  0.49871899  0.00614153  1
  Pb  Pb82  1  0.51300770  0.01584350  0.00288870  1
  Pb  Pb83  1  0.48756679  0.50830093  0.98298935  1
  C  C84  1  0.18147431  0.23549820  0.82511116  1
  C  C85  1  0.19755110  0.24138455  0.75370629  1
  C  C86  1  0.18023543  0.15172235  0.71346425  1
  C  C87  1  0.19454984  0.15746611  0.64710845  1
  C  C88  1  0.22527792  0.25338235  0.61885281  1
  C  C89  1  0.24210784  0.26033637  0.54854968  1
  C  C90  1  0.20569182  0.34978181  0.51385467  1
  C  C91  1  0.22360035  0.35772414  0.44817265  1
  C  C92  1  0.27976957  0.27707302  0.41420016  1
  C  C93  1  0.30052465  0.28840457  0.34537713  1
  C  C94  1  0.30089045  0.21295185  0.29579077  1
  C  C95  1  0.32269617  0.25741805  0.23469374  1
  C  C96  1  0.32351674  0.19795514  0.17159333  1
  C  C97  1  0.33964107  0.36605694  0.23884777  1
  C  C98  1  0.31612319  0.18741735  0.44877685  1
  C  C99  1  0.29699043  0.17910075  0.51446031  1
  C  C100  1  0.24050206  0.34330493  0.65943265  1
  C  C101  1  0.22722281  0.33743027  0.72579292  1
  C  C102  1  0.24219888  0.81394119  0.82491784  1
  C  C103  1  0.24636067  0.80275104  0.75284101  1
  C  C104  1  0.15492444  0.81949384  0.71390421  1
  C  C105  1  0.15952703  0.80628257  0.64706789  1
  C  C106  1  0.25590424  0.77676592  0.61745833  1
  C  C107  1  0.26306304  0.76081912  0.54689691  1
  C  C108  1  0.35217765  0.79747568  0.51398613  1
  C  C109  1  0.36197807  0.78031400  0.44803267  1
  C  C110  1  0.28333834  0.72495599  0.41202701  1
  C  C111  1  0.29564275  0.70632752  0.34274201  1
  C  C112  1  0.21896973  0.70210589  0.29381228  1
  C  C113  1  0.26323130  0.68384092  0.23182157  1
  C  C114  1  0.20127048  0.67966941  0.16954818  1
  C  C115  1  0.37322394  0.67315050  0.23460170  1
  C  C116  1  0.19399458  0.68817919  0.44482442  1
  C  C117  1  0.18387529  0.70644045  0.51087623  1
  C  C118  1  0.34742891  0.76187902  0.65685220  1
  C  C119  1  0.34273512  0.77463235  0.72344675  1
  C  C120  1  0.75961709  0.32515480  0.17694496  1
  C  C121  1  0.75265651  0.31005957  0.24832651  1
  C  C122  1  0.84309494  0.32345447  0.28849801  1
  C  C123  1  0.83726508  0.30790106  0.35464909  1
  C  C124  1  0.74064703  0.27910346  0.38259969  1
  C  C125  1  0.73411821  0.26085691  0.45259218  1
  C  C126  1  0.64470854  0.29694483  0.48712352  1
  C  C127  1  0.63717652  0.27892655  0.55277296  1
  C  C128  1  0.71832829  0.22309784  0.58667649  1
  C  C129  1  0.70800466  0.20361416  0.65559572  1
  C  C130  1  0.78471053  0.20373394  0.70456097  1
  C  C131  1  0.74142572  0.18576180  0.76641819  1
  C  C132  1  0.80401791  0.18404995  0.82841784  1
  C  C133  1  0.63243028  0.17093045  0.76340133  1
  C  C134  1  0.80799131  0.18687862  0.55227137  1
  C  C135  1  0.81578575  0.20603450  0.48659125  1
  C  C136  1  0.64975799  0.26824324  0.34217451  1
  C  C137  1  0.65564847  0.28345155  0.27602658  1
  C  C138  1  0.65596084  0.75930273  0.17674923  1
  C  C139  1  0.68310049  0.75366024  0.24737829  1
  C  C140  1  0.67154679  0.84446156  0.28735080  1
  C  C141  1  0.69201224  0.83838512  0.35336482  1
  C  C142  1  0.72352243  0.74116061  0.38148589  1
  C  C143  1  0.74243947  0.73426210  0.45186821  1
  C  C144  1  0.70663287  0.64602761  0.48595183  1
  C  C145  1  0.72423401  0.63879265  0.55208311  1
  C  C146  1  0.77928506  0.71908756  0.58688852  1
  C  C147  1  0.79826977  0.70874321  0.65634249  1
  C  C148  1  0.79411933  0.78497883  0.70539671  1
  C  C149  1  0.81159767  0.74094636  0.76766663  1
  C  C150  1  0.80790405  0.80086985  0.83049212  1
  C  C151  1  0.83020797  0.63210349  0.76488530  1
  C  C152  1  0.81494269  0.80765408  0.55291066  1
  C  C153  1  0.79626458  0.81519042  0.48672185  1
  C  C154  1  0.73492783  0.65045570  0.34112315  1
  C  C155  1  0.71534960  0.65662286  0.27490132  1
  S  S156  1  0.32879927  0.41337883  0.31576657  1
  S  S157  1  0.42204349  0.68652144  0.31148428  1
  S  S158  1  0.58310086  0.17909503  0.68661651  1
  S  S159  1  0.82626454  0.58364345  0.68782967  1
  I  I160  1  0.25777668  0.03904667  0.00433559  1
  I  I161  1  0.25087676  0.43018854  0.01960162  1
  I  I162  1  0.76035244  0.95285016  0.99419141  1
  I  I163  1  0.74774779  0.53840438  0.95883831  1
  I  I164  1  0.95755508  0.24776903  0.00166724  1
  I  I165  1  0.05214414  0.74837022  0.99642287  1
  I  I166  1  0.53850592  0.26277930  0.94773786  1
  I  I167  1  0.47179405  0.77249743  0.03177131  1
  I  I168  1  0.01495205  0.99490488  0.85948687  1
  I  I169  1  0.02070249  0.00461135  0.17060585  1
  I  I170  1  0.03625241  0.49052813  0.85425854  1
  I  I171  1  0.01725949  0.46281087  0.15970918  1
  I  I172  1  0.49458330  0.96448830  0.85241704  1
  I  I173  1  0.58571717  0.05589924  0.15355842  1
  I  I174  1  0.43161509  0.53594885  0.83218066  1
  I  I175  1  0.53497685  0.48773562  0.12971915  1
  N  N176  1  0.28125500  0.20066055  0.86204945  1
  N  N177  1  0.22023596  0.21434480  0.13398174  1
  N  N178  1  0.21405275  0.71091382  0.85628379  1
  N  N179  1  0.21662433  0.77900000  0.13059001  1
  N  N180  1  0.80268927  0.22700834  0.14263878  1
  N  N181  1  0.78864459  0.28453778  0.86836932  1
  N  N182  1  0.74571832  0.80442280  0.13814254  1
  N  N183  1  0.70966456  0.77542558  0.86767267  1
