# generated using pymatgen
data_H18PbC16S2(I2N)2
_symmetry_space_group_name_H-M   'P 1'
_cell_length_a   12.64024708
_cell_length_b   12.70173800
_cell_length_c   19.88540395
_cell_angle_alpha   90.95033596
_cell_angle_beta   88.78345407
_cell_angle_gamma   90.31493932
_symmetry_Int_Tables_number   1
_chemical_formula_structural   H18PbC16S2(I2N)2
_chemical_formula_sum   'H72 Pb4 C64 S8 I16 N8'
_cell_volume   3191.46240866
_cell_formula_units_Z   4
loop_
 _symmetry_equiv_pos_site_id
 _symmetry_equiv_pos_as_xyz
  1  'x, y, z'
loop_
 _atom_site_type_symbol
 _atom_site_label
 _atom_site_symmetry_multiplicity
 _atom_site_fract_x
 _atom_site_fract_y
 _atom_site_fract_z
 _atom_site_occupancy
  H  H0  1  0.31052874  0.14095640  0.90634128  1
  H  H1  1  0.31937419  0.25295551  0.86371186  1
  H  H2  1  0.37963165  0.14275201  0.83528116  1
  H  H3  1  0.21957482  0.05658297  0.80905997  1
  H  H4  1  0.14752214  0.14830514  0.85946190  1
  H  H5  1  0.11729910  0.34367425  0.81541058  1
  H  H6  1  0.27684602  0.42463371  0.58228628  1
  H  H7  1  0.30846755  0.43737597  0.45984467  1
  H  H8  1  0.23455215  0.46017024  0.34966955  1
  H  H9  1  0.28035647  0.43040409  0.22075659  1
  H  H10  1  0.40806364  0.17172312  0.17767271  1
  H  H11  1  0.36755058  0.29346579  0.14378235  1
  H  H12  1  0.29447695  0.14617784  0.08833083  1
  H  H13  1  0.19444651  0.21307919  0.12381063  1
  H  H14  1  0.23464974  0.09947082  0.15766242  1
  H  H15  1  0.18402938  0.12309145  0.43222700  1
  H  H16  1  0.15381695  0.11002299  0.55501835  1
  H  H17  1  0.25597839  0.10754779  0.67780044  1
  H  H18  1  0.13635099  0.70843721  0.91159799  1
  H  H19  1  0.25200883  0.70364030  0.87023318  1
  H  H20  1  0.14821521  0.63093101  0.84446422  1
  H  H21  1  0.05408052  0.77491408  0.80750866  1
  H  H22  1  0.13328508  0.86256698  0.85554332  1
  H  H23  1  0.34448182  0.88479268  0.81257066  1
  H  H24  1  0.42604027  0.72670204  0.57719445  1
  H  H25  1  0.43569785  0.69057630  0.45499991  1
  H  H26  1  0.45720987  0.76090189  0.34478122  1
  H  H27  1  0.42789781  0.71083645  0.21744037  1
  H  H28  1  0.16054280  0.59503843  0.17686718  1
  H  H29  1  0.28906078  0.62510119  0.14360439  1
  H  H30  1  0.15949002  0.71902251  0.08836778  1
  H  H31  1  0.23018936  0.80787431  0.13340223  1
  H  H32  1  0.10698927  0.77230265  0.15898858  1
  H  H33  1  0.12127324  0.81508721  0.43500148  1
  H  H34  1  0.11112346  0.84983646  0.55779324  1
  H  H35  1  0.10698755  0.74982509  0.67894319  1
  H  H36  1  0.89764348  0.22506112  0.09098283  1
  H  H37  1  0.77260072  0.21829132  0.11855482  1
  H  H38  1  0.86787342  0.15028386  0.15699862  1
  H  H39  1  0.95328223  0.30982451  0.19429387  1
  H  H40  1  0.86268911  0.38425832  0.14752104  1
  H  H41  1  0.65067124  0.37701846  0.18814197  1
  H  H42  1  0.57309862  0.21765494  0.42109659  1
  H  H43  1  0.56160619  0.18971718  0.54327231  1
  H  H44  1  0.53557252  0.27664884  0.65057532  1
  H  H45  1  0.55885396  0.25116840  0.78067847  1
  H  H46  1  0.79778380  0.11052977  0.82518032  1
  H  H47  1  0.68966649  0.17974561  0.86183904  1
  H  H48  1  0.88699448  0.21614177  0.89004174  1
  H  H49  1  0.79910066  0.31445786  0.89443219  1
  H  H50  1  0.88281769  0.30340921  0.82850470  1
  H  H51  1  0.87538722  0.31947605  0.56453887  1
  H  H52  1  0.88698851  0.34714658  0.44202097  1
  H  H53  1  0.89876284  0.26787983  0.32020727  1
  H  H54  1  0.78315011  0.86575006  0.08931804  1
  H  H55  1  0.79742777  0.75172025  0.13109024  1
  H  H56  1  0.85693331  0.86160695  0.15778930  1
  H  H57  1  0.69889455  0.94485030  0.19230535  1
  H  H58  1  0.62336467  0.85200938  0.14576377  1
  H  H59  1  0.61772220  0.64797387  0.18819581  1
  H  H60  1  0.77737187  0.57510800  0.41699536  1
  H  H61  1  0.80593477  0.56293663  0.53872544  1
  H  H62  1  0.72512852  0.54053990  0.65044835  1
  H  H63  1  0.76105235  0.57097822  0.77939328  1
  H  H64  1  0.89347034  0.83031472  0.81891855  1
  H  H65  1  0.85091510  0.71032944  0.85544357  1
  H  H66  1  0.78206814  0.88408122  0.90063634  1
  H  H67  1  0.69251627  0.78904640  0.89208439  1
  H  H68  1  0.69848309  0.88700705  0.83702308  1
  H  H69  1  0.68077549  0.87596830  0.56837894  1
  H  H70  1  0.65233496  0.88811285  0.44630260  1
  H  H71  1  0.73855632  0.89671639  0.32122900  1
  Pb  Pb72  1  0.01237624  0.00526925  0.01170031  1
  Pb  Pb73  1  0.98374659  0.51522858  0.01146500  1
  Pb  Pb74  1  0.49648878  0.98630473  0.00423055  1
  Pb  Pb75  1  0.52161102  0.50184705  0.98347092  1
  C  C76  1  0.21210276  0.14038996  0.82217013  1
  C  C77  1  0.19218994  0.20666988  0.76252034  1
  C  C78  1  0.14620368  0.30462273  0.76958486  1
  C  C79  1  0.19417347  0.26060014  0.65059261  1
  C  C80  1  0.21248680  0.26661178  0.57770489  1
  C  C81  1  0.25486648  0.35898621  0.54928570  1
  C  C82  1  0.27247434  0.36623188  0.48032884  1
  C  C83  1  0.24741453  0.28164760  0.43668539  1
  C  C84  1  0.26380640  0.29307928  0.36413291  1
  C  C85  1  0.25626604  0.38432777  0.32727570  1
  C  C86  1  0.27831556  0.36843401  0.25794888  1
  C  C87  1  0.30343676  0.26544986  0.24143750  1
  C  C88  1  0.34169780  0.22669957  0.17455206  1
  C  C89  1  0.20596090  0.18895843  0.46511230  1
  C  C90  1  0.18885906  0.18149199  0.53430262  1
  C  C91  1  0.21844471  0.18091240  0.69422112  1
  C  C92  1  0.13524905  0.79361900  0.82170975  1
  C  C93  1  0.20574779  0.81225781  0.76191925  1
  C  C94  1  0.30521838  0.85667025  0.76750426  1
  C  C95  1  0.26223394  0.81041777  0.64916863  1
  C  C96  1  0.26795552  0.79121859  0.57638912  1
  C  C97  1  0.35967005  0.74762829  0.54594216  1
  C  C98  1  0.36502021  0.72724115  0.47713740  1
  C  C99  1  0.27935755  0.75074187  0.43579351  1
  C  C100  1  0.28939842  0.73156124  0.36331890  1
  C  C101  1  0.38137995  0.73702382  0.32444859  1
  C  C102  1  0.36581646  0.71163965  0.25608567  1
  C  C103  1  0.26218967  0.68711822  0.24206946  1
  C  C104  1  0.22303480  0.65526764  0.17496215  1
  C  C105  1  0.18760021  0.79407412  0.46628436  1
  C  C106  1  0.18196793  0.81388082  0.53532042  1
  C  C107  1  0.18087491  0.78685057  0.69411663  1
  C  C108  1  0.87061862  0.31500420  0.17921420  1
  C  C109  1  0.79545149  0.31957762  0.23812334  1
  C  C110  1  0.69088747  0.34872255  0.23227216  1
  C  C111  1  0.73566447  0.30347264  0.34975396  1
  C  C112  1  0.73057231  0.28517942  0.42224291  1
  C  C113  1  0.63907127  0.24150904  0.45254002  1
  C  C114  1  0.63248843  0.22590295  0.52144088  1
  C  C115  1  0.71684876  0.25412123  0.56348273  1
  C  C116  1  0.70325495  0.24316188  0.63630790  1
  C  C117  1  0.60998596  0.25585837  0.67334268  1
  C  C118  1  0.62222258  0.24317760  0.74311177  1
  C  C119  1  0.72430987  0.21972589  0.76012463  1
  C  C120  1  0.75822883  0.18731976  0.82759045  1
  C  C121  1  0.80926877  0.29574752  0.53312933  1
  C  C122  1  0.81591736  0.31123398  0.46393574  1
  C  C123  1  0.82092806  0.29418884  0.30524966  1
  C  C124  1  0.69140263  0.86119769  0.17873787  1
  C  C125  1  0.68038199  0.79242477  0.23879804  1
  C  C126  1  0.64557301  0.68953079  0.23284882  1
  C  C127  1  0.69363316  0.73752250  0.35010217  1
  C  C128  1  0.71257024  0.73251860  0.42237376  1
  C  C129  1  0.75475170  0.64081478  0.45021348  1
  C  C130  1  0.77076568  0.63390549  0.51886367  1
  C  C131  1  0.74474466  0.71825270  0.56295413  1
  C  C132  1  0.75845251  0.70697350  0.63533629  1
  C  C133  1  0.74726030  0.61619206  0.67263341  1
  C  C134  1  0.76480344  0.63250231  0.74195272  1
  C  C135  1  0.79051474  0.73534946  0.75809174  1
  C  C136  1  0.82622222  0.77585420  0.82423901  1
  C  C137  1  0.70376079  0.81038653  0.53514054  1
  C  C138  1  0.68781781  0.81734648  0.46627181  1
  C  C139  1  0.70730731  0.82005079  0.30602236  1
  S  S140  1  0.13656902  0.36568110  0.69435656  1
  S  S141  1  0.29964014  0.18771815  0.31211314  1
  S  S142  1  0.36848617  0.86571389  0.69116216  1
  S  S143  1  0.18306831  0.69479240  0.31415949  1
  S  S144  1  0.62424357  0.34343978  0.30757654  1
  S  S145  1  0.80622134  0.21264246  0.68897833  1
  S  S146  1  0.64686793  0.62692155  0.30773399  1
  S  S147  1  0.79281121  0.81247830  0.68701883  1
  I  I148  1  0.25034045  0.94139321  0.97165286  1
  I  I149  1  0.22669365  0.55279924  0.00211589  1
  I  I150  1  0.75166130  0.04112111  0.01860045  1
  I  I151  1  0.74521237  0.39633882  0.00559495  1
  I  I152  1  0.06287312  0.25612117  0.01467735  1
  I  I153  1  0.95715117  0.76316956  0.98994985  1
  I  I154  1  0.44680291  0.22526421  0.00379155  1
  I  I155  1  0.59652076  0.73854546  1.00009885  1
  I  I156  1  0.97126600  0.02071310  0.85788115  1
  I  I157  1  0.01045104  0.99670262  0.18036944  1
  I  I158  1  0.97369996  0.50877789  0.84881918  1
  I  I159  1  0.93365892  0.59604142  0.16526606  1
  I  I160  1  0.53101619  0.00174691  0.84024853  1
  I  I161  1  0.40561954  0.94089287  0.15304734  1
  I  I162  1  0.45226838  0.46390544  0.83321488  1
  I  I163  1  0.47603568  0.49302614  0.13711684  1
  N  N164  1  0.31112545  0.17219271  0.85842404  1
  N  N165  1  0.25946971  0.16767466  0.13434854  1
  N  N166  1  0.17148688  0.70366949  0.86391574  1
  N  N167  1  0.17657224  0.74569170  0.13664557  1
  N  N168  1  0.84968515  0.22087966  0.13430093  1
  N  N169  1  0.83632671  0.26047594  0.86153877  1
  N  N170  1  0.78788884  0.83258333  0.13653964  1
  N  N171  1  0.74483579  0.83717534  0.86505452  1
