# generated using pymatgen
data_H18PbC16S2(I2N)2
_symmetry_space_group_name_H-M   'P 1'
_cell_length_a   12.18229605
_cell_length_b   12.14640453
_cell_length_c   20.46352152
_cell_angle_alpha   91.51995508
_cell_angle_beta   91.37381833
_cell_angle_gamma   87.79270154
_symmetry_Int_Tables_number   1
_chemical_formula_structural   H18PbC16S2(I2N)2
_chemical_formula_sum   'H72 Pb4 C64 S8 I16 N8'
_cell_volume   3023.89968513
_cell_formula_units_Z   4
loop_
 _symmetry_equiv_pos_site_id
 _symmetry_equiv_pos_as_xyz
  1  'x, y, z'
loop_
 _atom_site_type_symbol
 _atom_site_label
 _atom_site_symmetry_multiplicity
 _atom_site_fract_x
 _atom_site_fract_y
 _atom_site_fract_z
 _atom_site_occupancy
  H  H0  1  0.22728221  0.27549233  0.90764454  1
  H  H1  1  0.23123576  0.16648958  0.85547133  1
  H  H2  1  0.13691113  0.27096534  0.84496060  1
  H  H3  1  0.28176972  0.39923448  0.83071530  1
  H  H4  1  0.37891068  0.28713232  0.83636021  1
  H  H5  1  0.18095697  0.43350853  0.72715343  1
  H  H6  1  0.15368004  0.38845411  0.60916743  1
  H  H7  1  0.23973497  0.36186493  0.49453614  1
  H  H8  1  0.25556159  0.43873984  0.39181938  1
  H  H9  1  0.13051820  0.16254459  0.17958794  1
  H  H10  1  0.09766176  0.30262323  0.16061529  1
  H  H11  1  0.28441342  0.32695261  0.13220918  1
  H  H12  1  0.23409858  0.22007234  0.09022496  1
  H  H13  1  0.32224430  0.19635944  0.15227734  1
  H  H14  1  0.16710279  0.12522225  0.29909321  1
  H  H15  1  0.19333851  0.03863523  0.40097889  1
  H  H16  1  0.35542328  0.09151796  0.63161620  1
  H  H17  1  0.38246290  0.13735945  0.74891920  1
  H  H18  1  0.29557092  0.78290716  0.90940397  1
  H  H19  1  0.18095595  0.78842923  0.86287739  1
  H  H20  1  0.28687899  0.87055276  0.84802144  1
  H  H21  1  0.40675168  0.70842549  0.82838596  1
  H  H22  1  0.29183998  0.62570279  0.83573397  1
  H  H23  1  0.43210069  0.81529933  0.72869189  1
  H  H24  1  0.38478275  0.84072917  0.61160018  1
  H  H25  1  0.36551219  0.75835443  0.49563124  1
  H  H26  1  0.44702603  0.75930068  0.39166209  1
  H  H27  1  0.15669092  0.85737714  0.18024537  1
  H  H28  1  0.29208551  0.89743688  0.16324129  1
  H  H29  1  0.33857875  0.70127822  0.13726195  1
  H  H30  1  0.23992665  0.75673904  0.08921826  1
  H  H31  1  0.20590384  0.67055012  0.14714542  1
  H  H32  1  0.12261901  0.81998750  0.30051130  1
  H  H33  1  0.04096143  0.80369507  0.40223861  1
  H  H34  1  0.09896216  0.64611196  0.63150129  1
  H  H35  1  0.14457578  0.62423670  0.74886253  1
  H  H36  1  0.71810193  0.27318444  0.09172529  1
  H  H37  1  0.83102645  0.26336552  0.13956171  1
  H  H38  1  0.73107527  0.36017671  0.15573452  1
  H  H39  1  0.59988756  0.21491345  0.16891354  1
  H  H40  1  0.71158616  0.11759389  0.16217469  1
  H  H41  1  0.57060259  0.32360320  0.27048312  1
  H  H42  1  0.61551379  0.35150945  0.38851846  1
  H  H43  1  0.63611820  0.25792849  0.50525810  1
  H  H44  1  0.55639662  0.26265909  0.61038137  1
  H  H45  1  0.85116037  0.33967445  0.82202056  1
  H  H46  1  0.71510169  0.38448011  0.84267072  1
  H  H47  1  0.67436723  0.18876745  0.85693830  1
  H  H48  1  0.76788875  0.23730585  0.90891753  1
  H  H49  1  0.80818884  0.15251327  0.84663774  1
  H  H50  1  0.88128984  0.31368228  0.69939061  1
  H  H51  1  0.95910871  0.30592078  0.59715226  1
  H  H52  1  0.90077826  0.13288989  0.36880040  1
  H  H53  1  0.85580761  0.10538508  0.25084943  1
  H  H54  1  0.72836197  0.70867885  0.09227324  1
  H  H55  1  0.72718096  0.82273800  0.14038594  1
  H  H56  1  0.64026055  0.72057602  0.15367695  1
  H  H57  1  0.79753495  0.59318007  0.17243854  1
  H  H58  1  0.88412296  0.70607870  0.16689790  1
  H  H59  1  0.68707081  0.57022291  0.27155106  1
  H  H60  1  0.65894165  0.61794800  0.38831536  1
  H  H61  1  0.74480403  0.63524086  0.50531370  1
  H  H62  1  0.74345438  0.55285559  0.60861383  1
  H  H63  1  0.63941859  0.83801797  0.82256526  1
  H  H64  1  0.61514894  0.69862317  0.84168026  1
  H  H65  1  0.81088577  0.66799492  0.86222840  1
  H  H66  1  0.75958678  0.77453359  0.90779366  1
  H  H67  1  0.83484684  0.79914889  0.84311562  1
  H  H68  1  0.67568813  0.87665862  0.70095741  1
  H  H69  1  0.69177772  0.95970297  0.59927010  1
  H  H70  1  0.85861335  0.90107494  0.37128455  1
  H  H71  1  0.88719784  0.85232518  0.25446985  1
  Pb  Pb72  1  0.96953361  0.00516827  0.99667805  1
  Pb  Pb73  1  0.01898786  0.51427017  0.99539189  1
  Pb  Pb74  1  0.48420714  0.01283649  0.00247226  1
  Pb  Pb75  1  0.50705166  0.50197331  0.00456842  1
  C  C76  1  0.29640199  0.31176656  0.81822594  1
  C  C77  1  0.28150924  0.28725716  0.74638415  1
  C  C78  1  0.21904408  0.35844498  0.70609402  1
  C  C79  1  0.20373878  0.33300149  0.63980812  1
  C  C80  1  0.25036875  0.23526720  0.61205927  1
  C  C81  1  0.23285112  0.20597747  0.54295242  1
  C  C82  1  0.22909489  0.27337390  0.48969142  1
  C  C83  1  0.21418573  0.21532519  0.42868535  1
  C  C84  1  0.21178330  0.26686230  0.36491199  1
  C  C85  1  0.23412042  0.37620926  0.35528669  1
  C  C86  1  0.18955517  0.27877185  0.25098436  1
  C  C87  1  0.16080139  0.24659844  0.18220092  1
  C  C88  1  0.18726364  0.21169352  0.30410344  1
  C  C89  1  0.20479252  0.10343336  0.43780142  1
  C  C90  1  0.31519375  0.16568220  0.65256288  1
  C  C91  1  0.33061198  0.19157250  0.71851860  1
  C  C92  1  0.31833024  0.70471833  0.81811711  1
  C  C93  1  0.29083515  0.71912168  0.74692593  1
  C  C94  1  0.35872507  0.77845000  0.70735543  1
  C  C95  1  0.33250485  0.79221783  0.64137221  1
  C  C96  1  0.23780036  0.74613023  0.61286793  1
  C  C97  1  0.20874669  0.76195720  0.54370577  1
  C  C98  1  0.27640875  0.76772150  0.49076306  1
  C  C99  1  0.21843987  0.78383722  0.42984099  1
  C  C100  1  0.26975087  0.78877826  0.36588259  1
  C  C101  1  0.38171855  0.77511198  0.35567856  1
  C  C102  1  0.27830155  0.80826474  0.25193867  1
  C  C103  1  0.24404626  0.83161613  0.18313589  1
  C  C104  1  0.21144792  0.80728942  0.30530586  1
  C  C105  1  0.10586622  0.79200744  0.43897975  1
  C  C106  1  0.17115188  0.68517629  0.65278563  1
  C  C107  1  0.19713133  0.67223793  0.71876214  1
  C  C108  1  0.68725829  0.20026800  0.18074100  1
  C  C109  1  0.71176118  0.21452064  0.25255458  1
  C  C110  1  0.64317062  0.28184565  0.29210015  1
  C  C111  1  0.66810731  0.29718972  0.35843104  1
  C  C112  1  0.76228247  0.24550950  0.38686969  1
  C  C113  1  0.79115964  0.26376620  0.45606573  1
  C  C114  1  0.72428703  0.26927564  0.50963792  1
  C  C115  1  0.78274060  0.28535310  0.57040808  1
  C  C116  1  0.73319645  0.28786123  0.63495935  1
  C  C117  1  0.62253818  0.27507006  0.64604810  1
  C  C118  1  0.72885833  0.29942768  0.74964374  1
  C  C119  1  0.76462362  0.31770257  0.81893518  1
  C  C120  1  0.79329373  0.30132822  0.69539817  1
  C  C121  1  0.89435180  0.29397449  0.56056252  1
  C  C122  1  0.82922060  0.17609894  0.34708892  1
  C  C123  1  0.80403012  0.16066821  0.28098121  1
  C  C124  1  0.80412206  0.68141394  0.18368660  1
  C  C125  1  0.78853140  0.70849869  0.25493512  1
  C  C126  1  0.72579218  0.64227315  0.29356608  1
  C  C127  1  0.70989828  0.66915115  0.35934475  1
  C  C128  1  0.75636834  0.76327624  0.38857765  1
  C  C129  1  0.73807764  0.79251986  0.45755614  1
  C  C130  1  0.73257427  0.72437310  0.51029944  1
  C  C131  1  0.71465528  0.78206918  0.57127496  1
  C  C132  1  0.71002666  0.73009014  0.63503638  1
  C  C133  1  0.72609821  0.61792570  0.64476734  1
  C  C134  1  0.69083651  0.72006098  0.74878613  1
  C  C135  1  0.67239118  0.75273100  0.81842176  1
  C  C136  1  0.69025760  0.78782352  0.69579622  1
  C  C137  1  0.70526511  0.89492096  0.56242202  1
  C  C138  1  0.82035620  0.82859255  0.34953555  1
  C  C139  1  0.83655722  0.80130983  0.28392575  1
  S  S140  1  0.22285905  0.41140906  0.27523435  1
  S  S141  1  0.21545776  0.06999738  0.51825867  1
  S  S142  1  0.41464852  0.78702726  0.27568739  1
  S  S143  1  0.07208698  0.77884584  0.51882017  1
  S  S144  1  0.59266442  0.28230050  0.72715819  1
  S  S145  1  0.92704044  0.28054772  0.48004796  1
  S  S146  1  0.71494159  0.58401203  0.72462688  1
  S  S147  1  0.71947439  0.92936353  0.48274745  1
  I  I148  1  0.22679570  0.06131574  -0.00163676  1
  I  I149  1  0.26634975  0.41453053  0.99711618  1
  I  I150  1  0.73008628  0.91241841  0.00091961  1
  I  I151  1  0.76137075  0.56188463  0.00453897  1
  I  I152  1  0.94908567  0.26523157  0.01808037  1
  I  I153  1  0.07678140  0.76272904  0.98693096  1
  I  I154  1  0.59013541  0.24841431  0.99919280  1
  I  I155  1  0.43491933  0.75553701  1.00086660  1
  I  I156  1  0.94486511  -0.00279081  0.83386839  1
  I  I157  1  0.96225689  0.98654278  0.15006887  1
  I  I158  1  0.01474133  0.49677893  0.83745273  1
  I  I159  1  0.06106596  0.53712326  0.14924609  1
  I  I160  1  0.46935213  0.00871903  0.84421192  1
  I  I161  1  0.47358133  0.01610209  0.15703865  1
  I  I162  1  0.51957902  0.49341338  0.85408580  1
  I  I163  1  0.51188565  0.51622139  0.16510244  1
  N  N164  1  0.21718576  0.25065753  0.85850304  1
  N  N165  1  0.25710513  0.24819020  0.13701149  1
  N  N166  1  0.26527582  0.79282489  0.86146986  1
  N  N167  1  0.25892057  0.73386901  0.13679109  1
  N  N168  1  0.74732437  0.27986196  0.14036241  1
  N  N169  1  0.75296359  0.21760772  0.86000262  1
  N  N170  1  0.71879485  0.73860733  0.14043367  1
  N  N171  1  0.77671733  0.74703119  0.86006009  1
