# generated using pymatgen
data_H16PbC14S3(I2N)2
_symmetry_space_group_name_H-M   'P 1'
_cell_length_a   12.33142197
_cell_length_b   12.42464368
_cell_length_c   19.70962570
_cell_angle_alpha   87.54373243
_cell_angle_beta   86.11415721
_cell_angle_gamma   90.05044358
_symmetry_Int_Tables_number   1
_chemical_formula_structural   H16PbC14S3(I2N)2
_chemical_formula_sum   'H64 Pb4 C56 S12 I16 N8'
_cell_volume   3010.04907620
_cell_formula_units_Z   4
loop_
 _symmetry_equiv_pos_site_id
 _symmetry_equiv_pos_as_xyz
  1  'x, y, z'
loop_
 _atom_site_type_symbol
 _atom_site_label
 _atom_site_symmetry_multiplicity
 _atom_site_fract_x
 _atom_site_fract_y
 _atom_site_fract_z
 _atom_site_occupancy
  H  H0  1  0.16377690  0.26379204  0.84643310  1
  H  H1  1  0.25248622  0.30435533  0.89955597  1
  H  H2  1  0.20866115  0.38968102  0.83898522  1
  H  H3  1  0.33617223  0.18779572  0.81381705  1
  H  H4  1  0.39693395  0.31609370  0.82090089  1
  H  H5  1  0.29310199  0.13784579  0.69285304  1
  H  H6  1  0.32147816  0.04494085  0.58809009  1
  H  H7  1  0.13317413  0.04893499  0.35235296  1
  H  H8  1  0.09972114  0.12280256  0.22806615  1
  H  H9  1  0.16973331  0.41797710  0.18934228  1
  H  H10  1  0.11019269  0.30221407  0.15742280  1
  H  H11  1  0.34508478  0.35843631  0.15312377  1
  H  H12  1  0.26577591  0.34301293  0.08848046  1
  H  H13  1  0.30315495  0.23484866  0.13633987  1
  H  H14  1  0.23608309  0.34372648  0.47951229  1
  H  H15  1  0.30708315  0.44130704  0.57143005  1
  H  H16  1  0.27744537  0.85718793  0.84232654  1
  H  H17  1  0.28760260  0.76441567  0.90434624  1
  H  H18  1  0.38982505  0.78305408  0.84568005  1
  H  H19  1  0.16776076  0.70694297  0.81848877  1
  H  H20  1  0.27921429  0.61983112  0.83259511  1
  H  H21  1  0.13084049  0.71756527  0.69625822  1
  H  H22  1  0.04401207  0.67461055  0.59786721  1
  H  H23  1  0.04568278  0.85437484  0.34622178  1
  H  H24  1  0.12424714  0.88870430  0.21961511  1
  H  H25  1  0.42719460  0.82450440  0.18926973  1
  H  H26  1  0.31583337  0.88879626  0.15250181  1
  H  H27  1  0.35355449  0.65103555  0.16013518  1
  H  H28  1  0.37226734  0.73576513  0.09239612  1
  H  H29  1  0.24699233  0.71378813  0.12613136  1
  H  H30  1  0.34395113  0.76511147  0.47814826  1
  H  H31  1  0.44367791  0.70318587  0.57871322  1
  H  H32  1  0.73065770  0.31851136  0.15303155  1
  H  H33  1  0.69755158  0.22373359  0.09900239  1
  H  H34  1  0.60297408  0.26427312  0.15746710  1
  H  H35  1  0.80952465  0.15064505  0.18451155  1
  H  H36  1  0.68228192  0.08610011  0.18017448  1
  H  H37  1  0.86131653  0.19796772  0.30168885  1
  H  H38  1  0.95995447  0.17910471  0.40419787  1
  H  H39  1  0.95196755  0.36656211  0.64749170  1
  H  H40  1  0.87028579  0.39300700  0.77245496  1
  H  H41  1  0.57090151  0.31159883  0.80485475  1
  H  H42  1  0.67777864  0.38183238  0.83908746  1
  H  H43  1  0.63886814  0.14554965  0.84571573  1
  H  H44  1  0.64397737  0.23055675  0.90836575  1
  H  H45  1  0.75840497  0.20040233  0.86447850  1
  H  H46  1  0.65889081  0.26085789  0.52041973  1
  H  H47  1  0.55937285  0.19285579  0.43168850  1
  H  H48  1  0.68260684  0.69521048  0.16462882  1
  H  H49  1  0.77876638  0.69876889  0.09896637  1
  H  H50  1  0.76513201  0.58865893  0.15102493  1
  H  H51  1  0.85218720  0.80407864  0.18066303  1
  H  H52  1  0.92213031  0.68042087  0.17244447  1
  H  H53  1  0.80670022  0.85803714  0.30021758  1
  H  H54  1  0.81607851  0.95933950  0.40255899  1
  H  H55  1  0.64049208  0.95234706  0.66045204  1
  H  H56  1  0.62332817  0.87609613  0.78704036  1
  H  H57  1  0.70532492  0.58197490  0.81290787  1
  H  H58  1  0.63671078  0.68981578  0.85199127  1
  H  H59  1  0.87660771  0.65648024  0.83789190  1
  H  H60  1  0.79377422  0.65560217  0.90757441  1
  H  H61  1  0.81928759  0.77169570  0.86375149  1
  H  H62  1  0.74076648  0.66069423  0.52189812  1
  H  H63  1  0.80132592  0.56236164  0.42894210  1
  Pb  Pb64  1  0.00319056  0.98962819  0.99218110  1
  Pb  Pb65  1  0.99339649  0.48282205  0.99886722  1
  Pb  Pb66  1  0.48698181  0.01820365  0.00626434  1
  Pb  Pb67  1  0.50000488  0.50497453  0.01017440  1
  C  C68  1  0.32640554  0.27446237  0.80299383  1
  C  C69  1  0.31366649  0.29769952  0.72939382  1
  C  C70  1  0.30036662  0.22392277  0.68037995  1
  C  C71  1  0.29673998  0.27187067  0.61321147  1
  C  C72  1  0.28461966  0.21202259  0.55161854  1
  C  C73  1  0.29866431  0.10162810  0.54808432  1
  C  C74  1  0.24691526  0.18493317  0.43794389  1
  C  C75  1  0.21525875  0.20006513  0.36860064  1
  C  C76  1  0.16019995  0.12774178  0.33146233  1
  C  C77  1  0.14240364  0.16716240  0.26489168  1
  C  C78  1  0.18369241  0.26943839  0.25059699  1
  C  C79  1  0.17893999  0.33083675  0.18434938  1
  C  C80  1  0.25534283  0.25886241  0.48786101  1
  C  C81  1  0.30672372  0.38296735  0.61409032  1
  C  C82  1  0.25592838  0.69829951  0.81036373  1
  C  C83  1  0.28916656  0.70854590  0.73630178  1
  C  C84  1  0.21836057  0.71281026  0.68529939  1
  C  C85  1  0.27038701  0.71038344  0.61832897  1
  C  C86  1  0.21179096  0.71557382  0.55607202  1
  C  C87  1  0.10081327  0.69770688  0.55522080  1
  C  C88  1  0.18393323  0.74799975  0.44013061  1
  C  C89  1  0.19910036  0.77783703  0.36830889  1
  C  C90  1  0.12607775  0.82875352  0.32709010  1
  C  C91  1  0.16818516  0.84671044  0.25910068  1
  C  C92  1  0.27266958  0.80886361  0.24796712  1
  C  C93  1  0.33997950  0.81767070  0.18266908  1
  C  C94  1  0.25874915  0.74367321  0.48940895  1
  C  C95  1  0.38239542  0.70522195  0.62091559  1
  C  C96  1  0.72171584  0.15925140  0.19600500  1
  C  C97  1  0.69844696  0.17754668  0.26977187  1
  C  C98  1  0.77466275  0.19249249  0.31655584  1
  C  C99  1  0.72880829  0.20019587  0.38485104  1
  C  C100  1  0.79110392  0.21444229  0.44457567  1
  C  C101  1  0.90277541  0.20138947  0.44556600  1
  C  C102  1  0.82017898  0.25268834  0.55786910  1
  C  C103  1  0.80319145  0.28150184  0.62820224  1
  C  C104  1  0.87277201  0.33604196  0.66735107  1
  C  C105  1  0.82865285  0.35065685  0.73431444  1
  C  C106  1  0.72593610  0.30708538  0.74667361  1
  C  C107  1  0.65822611  0.31023822  0.81156558  1
  C  C108  1  0.74478743  0.24373118  0.50960046  1
  C  C109  1  0.61654110  0.19129946  0.38730743  1
  C  C110  1  0.84599800  0.71687477  0.19229021  1
  C  C111  1  0.82446293  0.69513134  0.26679028  1
  C  C112  1  0.80873486  0.77238023  0.31457619  1
  C  C113  1  0.79791147  0.72895822  0.38306981  1
  C  C114  1  0.78353456  0.79188111  0.44395342  1
  C  C115  1  0.79571052  0.90274112  0.44502771  1
  C  C116  1  0.74991249  0.82100180  0.56048961  1
  C  C117  1  0.72474975  0.80483985  0.63297521  1
  C  C118  1  0.67331086  0.87510842  0.67728187  1
  C  C119  1  0.66438372  0.83407893  0.74526274  1
  C  C120  1  0.70845992  0.73298095  0.75353194  1
  C  C121  1  0.70803511  0.66912501  0.81887628  1
  C  C122  1  0.75717616  0.74600600  0.51068581  1
  C  C123  1  0.80533390  0.61764050  0.38464484  1
  S  S124  1  0.27711432  0.05637933  0.46940039  1
  S  S125  1  0.24588876  0.31696837  0.31966742  1
  S  S126  1  0.32256895  0.42727133  0.69366198  1
  S  S127  1  0.05515042  0.71510516  0.47568969  1
  S  S128  1  0.31934829  0.75056428  0.32167346  1
  S  S129  1  0.42224124  0.70080016  0.70248660  1
  S  S130  1  0.94948162  0.22337909  0.52357085  1
  S  S131  1  0.68354380  0.24706936  0.67550878  1
  S  S132  1  0.56858251  0.17240275  0.30942641  1
  S  S133  1  0.77691179  0.94939404  0.52528650  1
  S  S134  1  0.76206441  0.68760659  0.67659413  1
  S  S135  1  0.82664195  0.56739008  0.30567960  1
  I  I136  1  0.24350822  0.91029724  0.00796548  1
  I  I137  1  0.23718460  0.55278181  0.02188866  1
  I  I138  1  0.73806360  0.07759234  0.00718844  1
  I  I139  1  0.74324555  0.44262985  0.96954484  1
  I  I140  1  0.07666374  0.24233162  0.99935450  1
  I  I141  1  0.92719197  0.73966162  0.00646904  1
  I  I142  1  0.42966950  0.26114616  0.97806689  1
  I  I143  1  0.55789086  0.75499170  0.01236550  1
  I  I144  1  0.02848819  0.96567843  0.83082314  1
  I  I145  1  0.96611274  0.99623866  0.15344990  1
  I  I146  1  0.02799124  0.51268943  0.83345859  1
  I  I147  1  0.90146510  0.43093980  0.15343377  1
  I  I148  1  0.47991139  0.01708544  0.83985970  1
  I  I149  1  0.44155626  0.08607060  0.15949644  1
  I  I150  1  0.46556576  0.52532306  0.85561014  1
  I  I151  1  0.49005813  0.49379579  0.18259094  1
  N  N152  1  0.23213820  0.31065524  0.84917076  1
  N  N153  1  0.27908693  0.31529169  0.13749188  1
  N  N154  1  0.30618545  0.78055396  0.85275178  1
  N  N155  1  0.32620399  0.72322579  0.13838360  1
  N  N156  1  0.68485932  0.24867913  0.14877639  1
  N  N157  1  0.67720286  0.21564613  0.85991707  1
  N  N158  1  0.76034727  0.67266001  0.14965054  1
  N  N159  1  0.80530980  0.69067826  0.85885271  1
