# generated using pymatgen
data_H16PbC14S3(I2N)2
_symmetry_space_group_name_H-M   'P 1'
_cell_length_a   12.15974174
_cell_length_b   12.21666683
_cell_length_c   19.84304457
_cell_angle_alpha   90.49813406
_cell_angle_beta   89.45958535
_cell_angle_gamma   89.71917315
_symmetry_Int_Tables_number   1
_chemical_formula_structural   H16PbC14S3(I2N)2
_chemical_formula_sum   'H64 Pb4 C56 S12 I16 N8'
_cell_volume   2947.43518322
_cell_formula_units_Z   4
loop_
 _symmetry_equiv_pos_site_id
 _symmetry_equiv_pos_as_xyz
  1  'x, y, z'
loop_
 _atom_site_type_symbol
 _atom_site_label
 _atom_site_symmetry_multiplicity
 _atom_site_fract_x
 _atom_site_fract_y
 _atom_site_fract_z
 _atom_site_occupancy
  H  H0  1  0.21241763  0.32884860  0.87741818  1
  H  H1  1  0.25250912  0.20617952  0.90349267  1
  H  H2  1  0.16515377  0.21417709  0.83935364  1
  H  H3  1  0.36490385  0.16956056  0.81071383  1
  H  H4  1  0.38970722  0.30859282  0.83321603  1
  H  H5  1  0.30420950  0.12977743  0.68828047  1
  H  H6  1  0.23245907  0.04645728  0.57838171  1
  H  H7  1  0.22691376  0.45381055  0.39731108  1
  H  H8  1  0.16355162  0.15935806  0.18054754  1
  H  H9  1  0.12799669  0.29516480  0.15795150  1
  H  H10  1  0.32979545  0.33242517  0.14618148  1
  H  H11  1  0.35419621  0.19825717  0.15960979  1
  H  H12  1  0.28046398  0.23506478  0.09350477  1
  H  H13  1  0.20009355  0.12551023  0.30912615  1
  H  H14  1  0.24005972  0.37989454  0.50145996  1
  H  H15  1  0.21246045  0.44881276  0.60698762  1
  H  H16  1  0.30671854  0.79950399  0.87363496  1
  H  H17  1  0.19699478  0.73935287  0.90708919  1
  H  H18  1  0.17948129  0.82789483  0.84449543  1
  H  H19  1  0.16109641  0.63338982  0.81002534  1
  H  H20  1  0.30092414  0.61463045  0.83389160  1
  H  H21  1  0.12404722  0.69957491  0.68840816  1
  H  H22  1  0.04469370  0.76717976  0.57923893  1
  H  H23  1  0.45702100  0.76597180  0.39432071  1
  H  H24  1  0.16017577  0.84630239  0.18344475  1
  H  H25  1  0.29734358  0.87183779  0.15660458  1
  H  H26  1  0.32560092  0.67706309  0.13861163  1
  H  H27  1  0.20134826  0.64864152  0.16957207  1
  H  H28  1  0.21164623  0.71952412  0.09819607  1
  H  H29  1  0.12714252  0.80599787  0.31141355  1
  H  H30  1  0.38148218  0.76088569  0.50118361  1
  H  H31  1  0.44794910  0.78692117  0.60813285  1
  H  H32  1  0.66996056  0.30777670  0.13244783  1
  H  H33  1  0.77718363  0.25255744  0.09130559  1
  H  H34  1  0.80020074  0.33930721  0.15473553  1
  H  H35  1  0.83342829  0.14699205  0.18493230  1
  H  H36  1  0.69355883  0.11956110  0.16503240  1
  H  H37  1  0.87317740  0.20065747  0.30895760  1
  H  H38  1  0.95706276  0.26849332  0.42055919  1
  H  H39  1  0.54488940  0.26725635  0.60484552  1
  H  H40  1  0.83895953  0.34026196  0.81857788  1
  H  H41  1  0.70238229  0.37464181  0.84355269  1
  H  H42  1  0.66268037  0.18278861  0.86040229  1
  H  H43  1  0.78624226  0.14557807  0.83045100  1
  H  H44  1  0.77780652  0.21785215  0.90220532  1
  H  H45  1  0.87349222  0.30689668  0.68968724  1
  H  H46  1  0.62088475  0.26007713  0.49934880  1
  H  H47  1  0.55365244  0.29276351  0.39579390  1
  H  H48  1  0.70774672  0.68267291  0.12288935  1
  H  H49  1  0.75172066  0.80445398  0.09810426  1
  H  H50  1  0.66437934  0.79714751  0.16339099  1
  H  H51  1  0.86583494  0.83187757  0.19005358  1
  H  H52  1  0.88583865  0.69277255  0.16473467  1
  H  H53  1  0.80479712  0.87026653  0.31252018  1
  H  H54  1  0.72903362  0.95397352  0.42196274  1
  H  H55  1  0.73424407  0.54690641  0.60462097  1
  H  H56  1  0.65469789  0.84318232  0.81872307  1
  H  H57  1  0.62917680  0.70614278  0.84358209  1
  H  H58  1  0.82973724  0.68078093  0.85631065  1
  H  H59  1  0.85004787  0.81287993  0.83709950  1
  H  H60  1  0.77659447  0.78177988  0.90554188  1
  H  H61  1  0.69512948  0.87616192  0.69062205  1
  H  H62  1  0.74047867  0.62050554  0.49882754  1
  H  H63  1  0.70458949  0.55329138  0.39248709  1
  Pb  Pb64  1  0.00717547  0.99210399  1.00011753  1
  Pb  Pb65  1  0.98866384  0.48837077  0.99552843  1
  Pb  Pb66  1  0.49885885  0.99940608  0.99722584  1
  Pb  Pb67  1  0.49994275  0.50461963  0.00330107  1
  C  C68  1  0.32906072  0.25226872  0.81126176  1
  C  C69  1  0.29560923  0.28445255  0.74243654  1
  C  C70  1  0.28599574  0.21716083  0.68658975  1
  C  C71  1  0.25370104  0.27432457  0.62733578  1
  C  C72  1  0.24012538  0.22626959  0.55995460  1
  C  C73  1  0.23227691  0.11568428  0.54436079  1
  C  C74  1  0.22189005  0.23165614  0.44170140  1
  C  C75  1  0.21531108  0.27552497  0.37366769  1
  C  C76  1  0.21907917  0.38728728  0.36106706  1
  C  C77  1  0.20137583  0.27971081  0.25567364  1
  C  C78  1  0.18969165  0.24512094  0.18397798  1
  C  C79  1  0.20512178  0.21453836  0.31213524  1
  C  C80  1  0.23392180  0.29106218  0.50069116  1
  C  C81  1  0.23863661  0.38508543  0.64119731  1
  C  C82  1  0.24211715  0.67263313  0.81181797  1
  C  C83  1  0.27690137  0.70818472  0.74344253  1
  C  C84  1  0.21184458  0.71716537  0.68709659  1
  C  C85  1  0.27169161  0.74796963  0.62792761  1
  C  C86  1  0.22573933  0.76039896  0.56029114  1
  C  C87  1  0.11484254  0.76743742  0.54492551  1
  C  C88  1  0.23339918  0.77682820  0.44188002  1
  C  C89  1  0.27786299  0.78323333  0.37348588  1
  C  C90  1  0.38988264  0.77621236  0.35918549  1
  C  C91  1  0.28154298  0.80135033  0.25569365  1
  C  C92  1  0.24494046  0.81482359  0.18492658  1
  C  C93  1  0.21643700  0.79748274  0.31302827  1
  C  C94  1  0.29209174  0.76601965  0.50073053  1
  C  C95  1  0.38234105  0.76254110  0.64228435  1
  C  C96  1  0.74958968  0.18084619  0.18652803  1
  C  C97  1  0.71789531  0.21243786  0.25660107  1
  C  C98  1  0.78545993  0.21918477  0.31198300  1
  C  C99  1  0.72839257  0.25008653  0.37258373  1
  C  C100  1  0.77610301  0.26144867  0.43986024  1
  C  C101  1  0.88697448  0.26883704  0.45494714  1
  C  C102  1  0.76880655  0.27877794  0.55835169  1
  C  C103  1  0.72369018  0.28488939  0.62663964  1
  C  C104  1  0.61152613  0.27792074  0.64030063  1
  C  C105  1  0.71837856  0.30122665  0.74452372  1
  C  C106  1  0.75291277  0.31393073  0.81580879  1
  C  C107  1  0.78437647  0.29816753  0.68754869  1
  C  C108  1  0.71007368  0.26695756  0.49957348  1
  C  C109  1  0.61741650  0.26737448  0.36021956  1
  C  C110  1  0.82744562  0.75065152  0.18856743  1
  C  C111  1  0.79295880  0.71689210  0.25729529  1
  C  C112  1  0.78430882  0.78349277  0.31364573  1
  C  C113  1  0.74983332  0.72668584  0.37272316  1
  C  C114  1  0.73732783  0.77425809  0.44040268  1
  C  C115  1  0.72903177  0.88488302  0.45605935  1
  C  C116  1  0.72131184  0.76871292  0.55886035  1
  C  C117  1  0.71667920  0.72548838  0.62707094  1
  C  C118  1  0.72436121  0.61409184  0.64038539  1
  C  C119  1  0.70244702  0.72306306  0.74507573  1
  C  C120  1  0.68715687  0.75915076  0.81636277  1
  C  C121  1  0.70419965  0.78734636  0.68818345  1
  C  C122  1  0.73279274  0.70933951  0.49969785  1
  C  C123  1  0.73164252  0.61683106  0.35827546  1
  S  S124  1  0.21773796  0.09291245  0.45950377  1
  S  S125  1  0.20878534  0.41651150  0.27788316  1
  S  S126  1  0.26562599  0.41863927  0.72286308  1
  S  S127  1  0.09347170  0.78039064  0.46005220  1
  S  S128  1  0.41888869  0.78840583  0.27569934  1
  S  S129  1  0.41245395  0.73707787  0.72433576  1
  S  S130  1  0.90859855  0.28256782  0.53991227  1
  S  S131  1  0.58150778  0.28917126  0.72382224  1
  S  S132  1  0.58332011  0.24372046  0.27841821  1
  S  S133  1  0.71597499  0.90764641  0.54120752  1
  S  S134  1  0.71501346  0.58631311  0.72386118  1
  S  S135  1  0.75835077  0.58348227  0.27623501  1
  I  I136  1  0.24973592  0.08463204  0.00024606  1
  I  I137  1  0.24377389  0.44782135  0.98815536  1
  I  I138  1  0.75213216  0.93257842  0.00089290  1
  I  I139  1  0.74512662  0.58230854  0.00280978  1
  I  I140  1  0.91768732  0.23857485  0.99126852  1
  I  I141  1  0.06118787  0.74043239  0.01169371  1
  I  I142  1  0.56068866  0.25366075  0.99683899  1
  I  I143  1  0.41796116  0.75616023  0.00175886  1
  I  I144  1  0.00575947  0.97239385  0.83225945  1
  I  I145  1  0.00076983  0.00397381  0.15956515  1
  I  I146  1  0.97550380  0.52162050  0.83529670  1
  I  I147  1  0.97463415  0.47237083  0.15637585  1
  I  I148  1  0.50798870  0.00786843  0.83584162  1
  I  I149  1  0.48463543  0.01989948  0.15862781  1
  I  I150  1  0.50404080  0.50922675  0.84749404  1
  I  I151  1  0.47024709  0.49903064  0.16660931  1
  N  N152  1  0.23304142  0.25079163  0.86015576  1
  N  N153  1  0.29531123  0.25446474  0.14373825  1
  N  N154  1  0.23123016  0.76636327  0.86184131  1
  N  N155  1  0.24655216  0.70805453  0.14562153  1
  N  N156  1  0.74826292  0.27666238  0.13881481  1
  N  N157  1  0.74354805  0.20806337  0.85429085  1
  N  N158  1  0.73113804  0.75894891  0.14096288  1
  N  N159  1  0.79256811  0.75795172  0.85592654  1
