# generated using pymatgen
data_H18PbC16S2(I2N)2
_symmetry_space_group_name_H-M   'P 1'
_cell_length_a   12.27673371
_cell_length_b   12.23307599
_cell_length_c   20.16740492
_cell_angle_alpha   87.40653412
_cell_angle_beta   87.29253220
_cell_angle_gamma   88.80471264
_symmetry_Int_Tables_number   1
_chemical_formula_structural   H18PbC16S2(I2N)2
_chemical_formula_sum   'H72 Pb4 C64 S8 I16 N8'
_cell_volume   3021.77376321
_cell_formula_units_Z   4
loop_
 _symmetry_equiv_pos_site_id
 _symmetry_equiv_pos_as_xyz
  1  'x, y, z'
loop_
 _atom_site_type_symbol
 _atom_site_label
 _atom_site_symmetry_multiplicity
 _atom_site_fract_x
 _atom_site_fract_y
 _atom_site_fract_z
 _atom_site_occupancy
  H  H0  1  0.22631765  0.24611673  0.91193880  1
  H  H1  1  0.13657765  0.25214677  0.85240625  1
  H  H2  1  0.22402681  0.35450644  0.85818134  1
  H  H3  1  0.28962205  0.12459146  0.83219887  1
  H  H4  1  0.37827391  0.23673061  0.83362137  1
  H  H5  1  0.18186423  0.09699781  0.73358010  1
  H  H6  1  0.15403750  0.14101832  0.61454170  1
  H  H7  1  0.23791837  0.15613208  0.49435406  1
  H  H8  1  0.16357484  0.38175020  0.29133880  1
  H  H9  1  0.12494181  0.18243696  0.15255600  1
  H  H10  1  0.11817211  0.32387076  0.17032839  1
  H  H11  1  0.32096264  0.19276502  0.13943276  1
  H  H12  1  0.31966013  0.32382333  0.16096990  1
  H  H13  1  0.26169280  0.29203241  0.09144396  1
  H  H14  1  0.20418062  0.03792021  0.24552923  1
  H  H15  1  0.18561952  0.47538315  0.39331167  1
  H  H16  1  0.35246716  0.42652084  0.62295412  1
  H  H17  1  0.38084768  0.38164339  0.74190972  1
  H  H18  1  0.23934583  0.77247912  0.91272387  1
  H  H19  1  0.25886083  0.85981021  0.84736266  1
  H  H20  1  0.35369889  0.76373337  0.86468347  1
  H  H21  1  0.12596682  0.71212052  0.83498726  1
  H  H22  1  0.23831460  0.61897353  0.84053196  1
  H  H23  1  0.09563596  0.82187598  0.73291130  1
  H  H24  1  0.13615408  0.85062238  0.61186092  1
  H  H25  1  0.15238995  0.76212615  0.49388420  1
  H  H26  1  0.38022605  0.83573967  0.28848907  1
  H  H27  1  0.18866042  0.87902937  0.14669210  1
  H  H28  1  0.32794593  0.88294842  0.16769770  1
  H  H29  1  0.20579198  0.69319746  0.12600676  1
  H  H30  1  0.32722088  0.67496713  0.16075958  1
  H  H31  1  0.31659428  0.75014312  0.09003149  1
  H  H32  1  0.04356527  0.78465095  0.23965636  1
  H  H33  1  0.47021496  0.81016438  0.39089873  1
  H  H34  1  0.42380768  0.64432771  0.62730506  1
  H  H35  1  0.38348985  0.61649387  0.74811016  1
  H  H36  1  0.75053417  0.26660869  0.09000101  1
  H  H37  1  0.76129371  0.35827496  0.14789015  1
  H  H38  1  0.65072282  0.27734421  0.14817345  1
  H  H39  1  0.87988268  0.20497346  0.16909058  1
  H  H40  1  0.76788761  0.11610043  0.16771484  1
  H  H41  1  0.90853575  0.31111194  0.26852028  1
  H  H42  1  0.86187056  0.34219893  0.38708606  1
  H  H43  1  0.84486418  0.26304692  0.50622942  1
  H  H44  1  0.61835901  0.33360145  0.70963061  1
  H  H45  1  0.81522709  0.37384156  0.84786161  1
  H  H46  1  0.67421146  0.37565605  0.83057287  1
  H  H47  1  0.81094821  0.17660671  0.86078225  1
  H  H48  1  0.67846958  0.17391277  0.84269346  1
  H  H49  1  0.71430634  0.23463569  0.91047764  1
  H  H50  1  0.96036045  0.28900964  0.75542003  1
  H  H51  1  0.52555521  0.31088650  0.60716695  1
  H  H52  1  0.57755218  0.14296761  0.37788945  1
  H  H53  1  0.62297598  0.11470217  0.25912751  1
  H  H54  1  0.73349413  0.74754680  0.08885069  1
  H  H55  1  0.65047531  0.71917195  0.15532236  1
  H  H56  1  0.75939919  0.63748431  0.13906564  1
  H  H57  1  0.78232003  0.87329044  0.16297623  1
  H  H58  1  0.88541783  0.77030076  0.15978684  1
  H  H59  1  0.68219908  0.90869666  0.26688301  1
  H  H60  1  0.65289866  0.86950639  0.38808635  1
  H  H61  1  0.73830141  0.84794090  0.50709081  1
  H  H62  1  0.65710829  0.62124175  0.71143890  1
  H  H63  1  0.62388701  0.81597082  0.85275928  1
  H  H64  1  0.62124358  0.67483637  0.83387986  1
  H  H65  1  0.81481012  0.80295568  0.86429501  1
  H  H66  1  0.82531064  0.67479590  0.83739979  1
  H  H67  1  0.75735988  0.69839099  0.90899816  1
  H  H68  1  0.72694654  0.95648149  0.75852092  1
  H  H69  1  0.68145061  0.52793740  0.60688731  1
  H  H70  1  0.85763146  0.58028636  0.37358660  1
  H  H71  1  0.88895907  0.62107461  0.25339810  1
  Pb  Pb72  1  0.99199123  0.00043247  0.99370277  1
  Pb  Pb73  1  0.98150708  0.51285541  0.99241478  1
  Pb  Pb74  1  0.50374394  0.01846238  -0.00007561  1
  Pb  Pb75  1  0.47279542  0.50537962  0.00662720  1
  C  C76  1  0.29822640  0.21171573  0.81847279  1
  C  C77  1  0.28268041  0.23685105  0.74598515  1
  C  C78  1  0.22031842  0.16881661  0.70916839  1
  C  C79  1  0.20478807  0.19339229  0.64211120  1
  C  C80  1  0.25116255  0.28697327  0.60984070  1
  C  C81  1  0.23313285  0.31381786  0.53962948  1
  C  C82  1  0.22630677  0.24445459  0.48782447  1
  C  C83  1  0.20755171  0.29991852  0.42526285  1
  C  C84  1  0.20021264  0.24722161  0.36220540  1
  C  C85  1  0.17956132  0.29450853  0.30023257  1
  C  C86  1  0.18048363  0.21790279  0.24915687  1
  C  C87  1  0.16565116  0.24743774  0.17738842  1
  C  C88  1  0.20112500  0.11224090  0.27301858  1
  C  C89  1  0.19948627  0.41236262  0.43184051  1
  C  C90  1  0.31439887  0.35437592  0.64710098  1
  C  C91  1  0.33032565  0.32934913  0.71396007  1
  C  C92  1  0.21302919  0.70099390  0.82220242  1
  C  C93  1  0.23788086  0.71858901  0.74895366  1
  C  C94  1  0.16786249  0.78305366  0.70971650  1
  C  C95  1  0.19019248  0.79868597  0.64161589  1
  C  C96  1  0.28320068  0.75010290  0.61079525  1
  C  C97  1  0.30867837  0.76782168  0.53948579  1
  C  C98  1  0.24009849  0.77319500  0.48700528  1
  C  C99  1  0.29607292  0.78980479  0.42360001  1
  C  C100  1  0.24581085  0.79445884  0.35946485  1
  C  C101  1  0.29450005  0.81560979  0.29700383  1
  C  C102  1  0.22114273  0.81168303  0.24462670  1
  C  C103  1  0.25351059  0.83438549  0.17300553  1
  C  C104  1  0.11628331  0.78775224  0.26801832  1
  C  C105  1  0.40757428  0.79823572  0.43020419  1
  C  C106  1  0.35243844  0.68461729  0.65044008  1
  C  C107  1  0.32993578  0.66906882  0.71834932  1
  C  C108  1  0.79312434  0.19630575  0.18294771  1
  C  C109  1  0.76820191  0.21188129  0.25552973  1
  C  C110  1  0.83592064  0.27417759  0.29254960  1
  C  C111  1  0.81001769  0.29118851  0.35931448  1
  C  C112  1  0.71589192  0.24558020  0.39109021  1
  C  C113  1  0.68799265  0.26445739  0.46106475  1
  C  C114  1  0.75663465  0.27262305  0.51282752  1
  C  C115  1  0.70073108  0.29118423  0.57527302  1
  C  C116  1  0.75274832  0.29837973  0.63837909  1
  C  C117  1  0.70540621  0.31803292  0.70055327  1
  C  C118  1  0.78144109  0.31547342  0.75175723  1
  C  C119  1  0.75179203  0.33032876  0.82359943  1
  C  C120  1  0.88666987  0.29462609  0.72769322  1
  C  C121  1  0.58871884  0.29852383  0.56857917  1
  C  C122  1  0.64944406  0.18146106  0.35389187  1
  C  C123  1  0.67531874  0.16497904  0.28719209  1
  C  C124  1  0.80154127  0.78816010  0.17786856  1
  C  C125  1  0.78537913  0.76604377  0.25143980  1
  C  C126  1  0.72048474  0.83642378  0.29033109  1
  C  C127  1  0.70375142  0.81418819  0.35841728  1
  C  C128  1  0.75014027  0.71998763  0.38928305  1
  C  C129  1  0.72954644  0.69260774  0.46007899  1
  C  C130  1  0.72524381  0.76013123  0.51310519  1
  C  C131  1  0.70628324  0.70312467  0.57591073  1
  C  C132  1  0.70265863  0.75365690  0.63989477  1
  C  C133  1  0.67954433  0.70657963  0.70252325  1
  C  C134  1  0.68747572  0.78073370  0.75429561  1
  C  C135  1  0.66774593  0.75050110  0.82638245  1
  C  C136  1  0.71678361  0.88414977  0.73035408  1
  C  C137  1  0.69477387  0.59180424  0.56837863  1
  C  C138  1  0.81747607  0.65143100  0.35017524  1
  C  C139  1  0.83541207  0.67470358  0.28258564  1
  S  S140  1  0.22034455  0.10688839  0.35637083  1
  S  S141  1  0.21537999  0.44872014  0.51142167  1
  S  S142  1  0.10800477  0.76975851  0.35261916  1
  S  S143  1  0.44277403  0.78482816  0.51090607  1
  S  S144  1  0.89246763  0.27778209  0.64408092  1
  S  S145  1  0.55327327  0.28190217  0.48892986  1
  S  S146  1  0.73400981  0.89047581  0.64591473  1
  S  S147  1  0.70786436  0.55809279  0.48724511  1
  I  I148  1  0.25051203  0.06912440  0.99398252  1
  I  I149  1  0.22757460  0.43320876  1.00177142  1
  I  I150  1  0.75146518  0.91072201  0.99914804  1
  I  I151  1  0.72606479  0.55221010  0.99855568  1
  I  I152  1  0.93182660  0.25611701  0.98951312  1
  I  I153  1  0.08681742  0.75035466  0.00513925  1
  I  I154  1  0.56789018  0.26255523  0.00554655  1
  I  I155  1  0.45041827  0.76304623  0.99404926  1
  I  I156  1  0.98908324  0.01325417  0.83090795  1
  I  I157  1  0.99787121  0.99674174  0.14799815  1
  I  I158  1  0.98444115  0.52508331  0.83361629  1
  I  I159  1  0.94155448  0.48892006  0.15171134  1
  I  I160  1  0.52827852  0.03359733  0.84115194  1
  I  I161  1  0.50081273  0.02317624  0.16015783  1
  I  I162  1  0.47042068  0.49221220  0.85101502  1
  I  I163  1  0.45676505  0.50097338  0.17109455  1
  N  N164  1  0.21545320  0.27079366  0.86243877  1
  N  N165  1  0.27430695  0.26426065  0.14027772  1
  N  N166  1  0.27096069  0.77976052  0.86361142  1
  N  N167  1  0.27679679  0.73142750  0.13609853  1
  N  N168  1  0.73409570  0.28027483  0.13993858  1
  N  N169  1  0.73865684  0.22188031  0.86128022  1
  N  N170  1  0.73079189  0.71797956  0.13830717  1
  N  N171  1  0.77331902  0.73107924  0.86083468  1
