# generated using pymatgen
data_H16PbC14S3(I2N)2
_symmetry_space_group_name_H-M   'P 1'
_cell_length_a   12.43194685
_cell_length_b   12.42257281
_cell_length_c   19.45008088
_cell_angle_alpha   89.68999400
_cell_angle_beta   90.19460699
_cell_angle_gamma   89.51770811
_symmetry_Int_Tables_number   1
_chemical_formula_structural   H16PbC14S3(I2N)2
_chemical_formula_sum   'H64 Pb4 C56 S12 I16 N8'
_cell_volume   3003.63938843
_cell_formula_units_Z   4
loop_
 _symmetry_equiv_pos_site_id
 _symmetry_equiv_pos_as_xyz
  1  'x, y, z'
loop_
 _atom_site_type_symbol
 _atom_site_label
 _atom_site_symmetry_multiplicity
 _atom_site_fract_x
 _atom_site_fract_y
 _atom_site_fract_z
 _atom_site_occupancy
  H  H0  1  0.17959375  0.15609598  0.83530744  1
  H  H1  1  0.24087431  0.17775855  0.90958829  1
  H  H2  1  0.18363601  0.28109394  0.86554560  1
  H  H3  1  0.37888709  0.15184411  0.82746167  1
  H  H4  1  0.37805528  0.28842033  0.85549653  1
  H  H5  1  0.30147166  0.44199436  0.76866765  1
  H  H6  1  0.31822337  0.03540283  0.57944431  1
  H  H7  1  0.33718387  0.42281250  0.37967535  1
  H  H8  1  0.29586341  0.44842713  0.24771706  1
  H  H9  1  0.19443423  0.35307430  0.14827448  1
  H  H10  1  0.11136072  0.24321540  0.17122630  1
  H  H11  1  0.26822143  0.12375480  0.15698431  1
  H  H12  1  0.33974316  0.22679221  0.12475343  1
  H  H13  1  0.22703228  0.18716107  0.08625092  1
  H  H14  1  0.27423381  0.36518371  0.50406155  1
  H  H15  1  0.33394811  0.11134557  0.69683823  1
  H  H16  1  0.15835639  0.81895027  0.83268335  1
  H  H17  1  0.17174314  0.75540369  0.90731716  1
  H  H18  1  0.27941087  0.80863023  0.86890004  1
  H  H19  1  0.15288116  0.61712184  0.82539552  1
  H  H20  1  0.28857811  0.61696997  0.85533533  1
  H  H21  1  0.44262073  0.69489836  0.76974139  1
  H  H22  1  0.03585054  0.68775185  0.57881690  1
  H  H23  1  0.42285027  0.66242002  0.38200389  1
  H  H24  1  0.44980284  0.70226600  0.25002044  1
  H  H25  1  0.35291921  0.79673565  0.14785980  1
  H  H26  1  0.24183827  0.88227235  0.16805785  1
  H  H27  1  0.12862482  0.71448059  0.16415627  1
  H  H28  1  0.23122586  0.65220207  0.12636361  1
  H  H29  1  0.17490682  0.75989835  0.08977858  1
  H  H30  1  0.36514776  0.72395225  0.50421942  1
  H  H31  1  0.11303902  0.66287198  0.69535068  1
  H  H32  1  0.84495923  0.32060366  0.16495739  1
  H  H33  1  0.82516897  0.25859422  0.09090499  1
  H  H34  1  0.72151625  0.31496899  0.13174700  1
  H  H35  1  0.84803612  0.11991749  0.17407339  1
  H  H36  1  0.71209409  0.12262153  0.14446926  1
  H  H37  1  0.55862154  0.20480200  0.22924729  1
  H  H38  1  0.96446310  0.18351747  0.42028593  1
  H  H39  1  0.57689623  0.16877870  0.61857288  1
  H  H40  1  0.55127949  0.21552634  0.74938093  1
  H  H41  1  0.64709758  0.30779836  0.84863961  1
  H  H42  1  0.75522300  0.39334305  0.82796025  1
  H  H43  1  0.88078656  0.25094103  0.84655850  1
  H  H44  1  0.78238592  0.16205174  0.86474213  1
  H  H45  1  0.80264402  0.27096040  0.91478321  1
  H  H46  1  0.63524799  0.22261149  0.49542606  1
  H  H47  1  0.88769794  0.16284852  0.30409271  1
  H  H48  1  0.67425440  0.84342725  0.16444448  1
  H  H49  1  0.73603817  0.81985857  0.09076997  1
  H  H50  1  0.68380966  0.71751467  0.13547379  1
  H  H51  1  0.87451495  0.85001822  0.17396958  1
  H  H52  1  0.87754089  0.71366867  0.14582859  1
  H  H53  1  0.78866018  0.56120457  0.23109467  1
  H  H54  1  0.81638848  0.96530829  0.42164670  1
  H  H55  1  0.83791484  0.57548539  0.62016009  1
  H  H56  1  0.79228491  0.54859508  0.75113671  1
  H  H57  1  0.69284375  0.64406725  0.85027472  1
  H  H58  1  0.60503175  0.75148414  0.82723057  1
  H  H59  1  0.74065881  0.87898501  0.84495004  1
  H  H60  1  0.83421540  0.78450803  0.86527011  1
  H  H61  1  0.72394214  0.80285145  0.91432921  1
  H  H62  1  0.77729620  0.63510015  0.49600682  1
  H  H63  1  0.83839383  0.88840890  0.30469264  1
  Pb  Pb64  1  0.01442044  -0.00012783  0.99774012  1
  Pb  Pb65  1  0.99491807  0.49273793  0.99412584  1
  Pb  Pb66  1  0.51433489  -0.00294562  0.99886923  1
  Pb  Pb67  1  0.50065736  0.49912788  0.01183964  1
  C  C68  1  0.33440126  0.22862263  0.82490856  1
  C  C69  1  0.31869126  0.26619579  0.75241383  1
  C  C70  1  0.30221817  0.37296893  0.73472836  1
  C  C71  1  0.30489919  0.25325800  0.63244843  1
  C  C72  1  0.30023339  0.21219643  0.56247706  1
  C  C73  1  0.30781360  0.10406015  0.54519993  1
  C  C74  1  0.28084677  0.22053922  0.44212638  1
  C  C75  1  0.26839008  0.26247007  0.37288792  1
  C  C76  1  0.29846608  0.36247544  0.34788125  1
  C  C77  1  0.27655729  0.37610747  0.27692712  1
  C  C78  1  0.22942300  0.28723378  0.24754886  1
  C  C79  1  0.19310396  0.27534386  0.17524285  1
  C  C80  1  0.28469126  0.27802878  0.50271106  1
  C  C81  1  0.32023364  0.19801611  0.69377408  1
  C  C82  1  0.22904811  0.66129354  0.82395171  1
  C  C83  1  0.26727785  0.67807343  0.75202273  1
  C  C84  1  0.37373967  0.69561038  0.73530498  1
  C  C85  1  0.25399705  0.69534972  0.63220563  1
  C  C86  1  0.21255678  0.70138622  0.56218178  1
  C  C87  1  0.10429133  0.69637290  0.54472673  1
  C  C88  1  0.22001785  0.72082915  0.44197576  1
  C  C89  1  0.26198053  0.73238852  0.37301177  1
  C  C90  1  0.36266152  0.70142627  0.34935200  1
  C  C91  1  0.37721932  0.72258218  0.27854102  1
  C  C92  1  0.28825718  0.76970736  0.24790091  1
  C  C93  1  0.27552406  0.80082052  0.17455032  1
  C  C94  1  0.27798199  0.71565532  0.50268969  1
  C  C95  1  0.19923173  0.67774219  0.69299616  1
  C  C96  1  0.77178734  0.16525803  0.17560981  1
  C  C97  1  0.73351393  0.18149488  0.24742223  1
  C  C98  1  0.62707599  0.20068806  0.26398840  1
  C  C99  1  0.74612305  0.19448085  0.36730663  1
  C  C100  1  0.78776063  0.19925734  0.43726003  1
  C  C101  1  0.89619295  0.19301210  0.45448749  1
  C  C102  1  0.78077792  0.21921712  0.55730980  1
  C  C103  1  0.73923122  0.23303303  0.62611514  1
  C  C104  1  0.63801365  0.20660895  0.65032159  1
  C  C105  1  0.62442365  0.23099918  0.72063765  1
  C  C106  1  0.71441012  0.27558902  0.75035858  1
  C  C107  1  0.72519307  0.31094066  0.82275998  1
  C  C108  1  0.72253230  0.21397056  0.49681301  1
  C  C109  1  0.80124596  0.17786153  0.30650997  1
  C  C110  1  0.83215097  0.77288444  0.17622271  1
  C  C111  1  0.81724621  0.73500706  0.24849776  1
  C  C112  1  0.79615622  0.62917328  0.26552259  1
  C  C113  1  0.80439220  0.74760221  0.36824838  1
  C  C114  1  0.80065123  0.78837677  0.43812625  1
  C  C115  1  0.80711569  0.89634029  0.45556971  1
  C  C116  1  0.78234265  0.77952911  0.55822350  1
  C  C117  1  0.76884514  0.73706805  0.62702755  1
  C  C118  1  0.79852310  0.63614834  0.65175615  1
  C  C119  1  0.77403801  0.62173982  0.72213127  1
  C  C120  1  0.72539800  0.71074025  0.75118255  1
  C  C121  1  0.68817339  0.72161955  0.82322630  1
  C  C122  1  0.78671700  0.72217304  0.49760469  1
  C  C123  1  0.82194389  0.80245767  0.30729493  1
  S  S124  1  0.28873056  0.38994159  0.64824567  1
  S  S125  1  0.29713833  0.08384687  0.45860690  1
  S  S126  1  0.20980553  0.18670306  0.30829730  1
  S  S127  1  0.39032450  0.71180502  0.64894318  1
  S  S128  1  0.08357326  0.70762274  0.45814497  1
  S  S129  1  0.18685142  0.79144795  0.30742087  1
  S  S130  1  0.60999613  0.21414486  0.35037381  1
  S  S131  1  0.91730642  0.20437342  0.54099892  1
  S  S132  1  0.81625620  0.29030705  0.69060326  1
  S  S133  1  0.78230705  0.61220444  0.35190134  1
  S  S134  1  0.79705279  0.91605403  0.54213395  1
  S  S135  1  0.70737269  0.81247515  0.69083154  1
  I  I136  1  0.26552938  0.97993123  0.98318760  1
  I  I137  1  0.24954337  0.50551055  0.01591767  1
  I  I138  1  0.76690373  1.01102622  0.00579586  1
  I  I139  1  0.75182988  0.44191100  0.99277154  1
  I  I140  1  0.03241855  0.24502544  0.01346730  1
  I  I141  1  0.00152536  0.74684644  0.98844968  1
  I  I142  1  0.49116801  0.24516146  0.02944701  1
  I  I143  1  0.55681796  0.74624183  0.99476995  1
  I  I144  1  0.01217794  0.00216547  0.82961861  1
  I  I145  1  0.04819579  -0.00050239  0.16490019  1
  I  I146  1  0.01194373  0.43245705  0.82941970  1
  I  I147  1  0.99312131  0.49914349  0.15807334  1
  I  I148  1  0.54144843  0.98868146  0.83183588  1
  I  I149  1  0.50999944  0.97679119  0.16391874  1
  I  I150  1  0.49757031  0.49294580  0.85015348  1
  I  I151  1  0.54784082  0.51078543  0.17325487  1
  N  N152  1  0.22816054  0.21038329  0.86109514  1
  N  N153  1  0.26248888  0.19853988  0.13392366  1
  N  N154  1  0.20913356  0.76744091  0.86008158  1
  N  N155  1  0.19823087  0.72734760  0.13665625  1
  N  N156  1  0.79184924  0.27112169  0.13893947  1
  N  N157  1  0.80285958  0.24223855  0.86459200  1
  N  N158  1  0.72565266  0.78894529  0.13982321  1
  N  N159  1  0.75305045  0.80184460  0.86419552  1
