# generated using pymatgen
data_H16PbC14S3(I2N)2
_symmetry_space_group_name_H-M   'P 1'
_cell_length_a   12.67746695
_cell_length_b   12.52581726
_cell_length_c   19.18253492
_cell_angle_alpha   89.00285871
_cell_angle_beta   86.99592541
_cell_angle_gamma   90.65716480
_symmetry_Int_Tables_number   1
_chemical_formula_structural   H16PbC14S3(I2N)2
_chemical_formula_sum   'H64 Pb4 C56 S12 I16 N8'
_cell_volume   3041.22237646
_cell_formula_units_Z   4
loop_
 _symmetry_equiv_pos_site_id
 _symmetry_equiv_pos_as_xyz
  1  'x, y, z'
loop_
 _atom_site_type_symbol
 _atom_site_label
 _atom_site_symmetry_multiplicity
 _atom_site_fract_x
 _atom_site_fract_y
 _atom_site_fract_z
 _atom_site_occupancy
  H  H0  1  0.37138548  0.12215075  0.83381064  1
  H  H1  1  0.28821992  0.08699265  0.90085689  1
  H  H2  1  0.31863937  0.21506438  0.88626885  1
  H  H3  1  0.14034305  0.16298908  0.85572901  1
  H  H4  1  0.19654655  0.07070777  0.79639578  1
  H  H5  1  0.17080455  0.37655818  0.82593426  1
  H  H6  1  0.24446978  0.49628722  0.55978656  1
  H  H7  1  0.26709646  0.03271597  0.43878903  1
  H  H8  1  0.33867073  0.27733629  0.19121518  1
  H  H9  1  0.40937812  0.15612762  0.18314121  1
  H  H10  1  0.26378370  0.06318853  0.14952818  1
  H  H11  1  0.17825487  0.16330990  0.16472264  1
  H  H12  1  0.27591646  0.17584228  0.10085837  1
  H  H13  1  0.29370721  0.32753537  0.31284030  1
  H  H14  1  0.24542102  0.14861622  0.54355855  1
  H  H15  1  0.25130307  0.13750799  0.66951875  1
  H  H16  1  0.10948337  0.65484601  0.84155496  1
  H  H17  1  0.08491715  0.74043077  0.90519098  1
  H  H18  1  0.20912089  0.70490433  0.88681481  1
  H  H19  1  0.16001385  0.88672045  0.84605172  1
  H  H20  1  0.07001158  0.82428511  0.79182723  1
  H  H21  1  0.37574165  0.83643577  0.81792630  1
  H  H22  1  0.49205739  0.75716885  0.55318849  1
  H  H23  1  0.03352277  0.73115018  0.44050909  1
  H  H24  1  0.27997098  0.65706754  0.19355439  1
  H  H25  1  0.15523355  0.59291076  0.18830168  1
  H  H26  1  0.08096339  0.76257730  0.15601554  1
  H  H27  1  0.20308760  0.82095009  0.15498799  1
  H  H28  1  0.17748132  0.72025508  0.10049675  1
  H  H29  1  0.32799894  0.70968407  0.31208767  1
  H  H30  1  0.14833537  0.76037644  0.54330032  1
  H  H31  1  0.13543175  0.77085001  0.66867208  1
  H  H32  1  0.88551290  0.15458951  0.16494208  1
  H  H33  1  0.91877773  0.23469428  0.09639090  1
  H  H34  1  0.79179600  0.20388017  0.11438443  1
  H  H35  1  0.83773965  0.38576104  0.14589068  1
  H  H36  1  0.93091261  0.33311993  0.20264663  1
  H  H37  1  0.62672681  0.34584313  0.17795706  1
  H  H38  1  0.50570023  0.25652992  0.44333110  1
  H  H39  1  0.96406884  0.23447011  0.56043602  1
  H  H40  1  0.70598455  0.22187384  0.80905294  1
  H  H41  1  0.80922376  0.12868874  0.81405670  1
  H  H42  1  0.91748152  0.31400209  0.82782647  1
  H  H43  1  0.80313647  0.34332952  0.86720906  1
  H  H44  1  0.86667536  0.23523271  0.89257084  1
  H  H45  1  0.66494131  0.24042313  0.68503944  1
  H  H46  1  0.84942693  0.26643697  0.45366293  1
  H  H47  1  0.86320304  0.27125300  0.32880965  1
  H  H48  1  0.84278381  0.88309770  0.16514747  1
  H  H49  1  0.76932850  0.90410119  0.09609471  1
  H  H50  1  0.80111075  0.77857838  0.12063422  1
  H  H51  1  0.61568147  0.82772791  0.14946363  1
  H  H52  1  0.66467766  0.92775757  0.20397692  1
  H  H53  1  0.64066601  0.62094862  0.18350790  1
  H  H54  1  0.73785043  0.50496190  0.43816270  1
  H  H55  1  0.76959247  0.96629871  0.56259260  1
  H  H56  1  0.82438195  0.71762301  0.80604585  1
  H  H57  1  0.89119541  0.84241584  0.81052438  1
  H  H58  1  0.69856535  0.91473242  0.83345095  1
  H  H59  1  0.67467971  0.79069054  0.86239279  1
  H  H60  1  0.77090061  0.85987537  0.89563571  1
  H  H61  1  0.78172700  0.66714406  0.68332769  1
  H  H62  1  0.74017842  0.85212699  0.45746280  1
  H  H63  1  0.73174536  0.86528124  0.32959694  1
  Pb  Pb64  1  0.00072151  1.00449793  0.01445708  1
  Pb  Pb65  1  0.98340098  0.51706711  0.00219783  1
  Pb  Pb66  1  0.49527563  0.98503167  0.99939796  1
  Pb  Pb67  1  0.50121172  0.48207237  0.99884219  1
  C  C68  1  0.20712433  0.15009774  0.81838586  1
  C  C69  1  0.21263080  0.23468683  0.76276278  1
  C  C70  1  0.19072375  0.34026930  0.77598198  1
  C  C71  1  0.22658622  0.30741365  0.64938548  1
  C  C72  1  0.24042444  0.31933480  0.57378933  1
  C  C73  1  0.24685433  0.41671080  0.53810695  1
  C  C74  1  0.26166707  0.26371571  0.45731860  1
  C  C75  1  0.27491689  0.19903578  0.39514082  1
  C  C76  1  0.27704280  0.08831474  0.39472009  1
  C  C77  1  0.30517164  0.16632690  0.27548642  1
  C  C78  1  0.33324220  0.19044872  0.20043847  1
  C  C79  1  0.29030964  0.24241033  0.32580780  1
  C  C80  1  0.24890429  0.23212473  0.52672873  1
  C  C81  1  0.23323603  0.21592048  0.69042537  1
  C  C82  1  0.14748262  0.81656134  0.81400355  1
  C  C83  1  0.23278607  0.80539297  0.75832399  1
  C  C84  1  0.33879275  0.81864290  0.76948271  1
  C  C85  1  0.30576627  0.78150179  0.64505562  1
  C  C86  1  0.31722119  0.76399017  0.57016337  1
  C  C87  1  0.41350983  0.75461462  0.53309276  1
  C  C88  1  0.26225345  0.73978382  0.45591945  1
  C  C89  1  0.19910098  0.72576410  0.39522592  1
  C  C90  1  0.08955468  0.72230134  0.39617197  1
  C  C91  1  0.16969482  0.69488780  0.27712019  1
  C  C92  1  0.19452949  0.66717734  0.20285479  1
  C  C93  1  0.24356876  0.71079610  0.32600258  1
  C  C94  1  0.23095325  0.75516847  0.52518187  1
  C  C95  1  0.21409785  0.78386152  0.68745900  1
  C  C96  1  0.85326593  0.31928717  0.18163092  1
  C  C97  1  0.76807261  0.30809791  0.23792033  1
  C  C98  1  0.66264446  0.32261188  0.22616018  1
  C  C99  1  0.69299535  0.28173585  0.35104513  1
  C  C100  1  0.68075019  0.26475145  0.42633139  1
  C  C101  1  0.58420015  0.25502701  0.46353281  1
  C  C102  1  0.73497289  0.24586183  0.54141538  1
  C  C103  1  0.79691330  0.23860378  0.60320193  1
  C  C104  1  0.90610767  0.23261093  0.60428091  1
  C  C105  1  0.82097888  0.23063060  0.72376463  1
  C  C106  1  0.79089580  0.21115285  0.79889128  1
  C  C107  1  0.74966016  0.23778241  0.67257517  1
  C  C108  1  0.76675707  0.25905940  0.47172292  1
  C  C109  1  0.78527554  0.28449790  0.30913562  1
  C  C110  1  0.67879604  0.84721371  0.18425874  1
  C  C111  1  0.68512482  0.76562274  0.24135271  1
  C  C112  1  0.66525966  0.65880555  0.23068991  1
  C  C113  1  0.71461647  0.69423271  0.35212710  1
  C  C114  1  0.73468499  0.68212269  0.42593025  1
  C  C115  1  0.74285563  0.58416337  0.46011640  1
  C  C116  1  0.75951174  0.73556318  0.54117243  1
  C  C117  1  0.77217078  0.79848651  0.60348083  1
  C  C118  1  0.77651435  0.90918654  0.60536145  1
  C  C119  1  0.79498631  0.82685397  0.72254659  1
  C  C120  1  0.81715052  0.80376685  0.79666124  1
  C  C121  1  0.78239923  0.75261303  0.67166663  1
  C  C122  1  0.74492477  0.76841426  0.47313080  1
  C  C123  1  0.71364818  0.78592455  0.31077433  1
  S  S124  1  0.19496070  0.41588222  0.70117566  1
  S  S125  1  0.26295658  0.40217200  0.44999735  1
  S  S126  1  0.29990116  0.03917489  0.31286235  1
  S  S127  1  0.41472498  0.80540220  0.69410520  1
  S  S128  1  0.39926986  0.73584061  0.44628115  1
  S  S129  1  0.04296565  0.69869522  0.31573577  1
  S  S130  1  0.58533841  0.30804529  0.30135065  1
  S  S131  1  0.59788433  0.23971619  0.55096206  1
  S  S132  1  0.94871867  0.22374543  0.68748121  1
  S  S133  1  0.68058759  0.58393739  0.30422124  1
  S  S134  1  0.76135245  0.59705197  0.54692737  1
  S  S135  1  0.79492327  0.95501599  0.68730930  1
  I  I136  1  0.23267779  0.93284168  0.98378754  1
  I  I137  1  0.22312265  0.57990682  0.00665573  1
  I  I138  1  0.73281795  0.06194457  0.01887878  1
  I  I139  1  0.74205173  0.40627375  0.00249926  1
  I  I140  1  0.06913215  0.25728344  0.00965451  1
  I  I141  1  0.91622710  0.76605510  0.98073358  1
  I  I142  1  0.41821290  0.23700960  0.00986937  1
  I  I143  1  0.55878815  0.74641294  0.98145216  1
  I  I144  1  0.96585253  0.02811351  0.85899772  1
  I  I145  1  0.00346227  0.99704953  0.19427148  1
  I  I146  1  0.96462021  0.52685681  0.82667996  1
  I  I147  1  0.92944370  0.59368658  0.15503727  1
  I  I148  1  0.54455192  0.03467566  0.82903116  1
  I  I149  1  0.40337936  0.91501597  0.15430207  1
  I  I150  1  0.47474823  0.48413754  0.84058530  1
  I  I151  1  0.43418674  0.48808359  0.16530160  1
  N  N152  1  0.30219965  0.14466805  0.86137901  1
  N  N153  1  0.25569188  0.14605709  0.15117077  1
  N  N154  1  0.13931137  0.72369417  0.86421604  1
  N  N155  1  0.16143587  0.74992668  0.15059775  1
  N  N156  1  0.86175366  0.22190228  0.13734485  1
  N  N157  1  0.84794837  0.27985577  0.84914428  1
  N  N158  1  0.77934963  0.85290523  0.13879028  1
  N  N159  1  0.73551093  0.84469251  0.84924235  1
