# generated using pymatgen
data_H18PbC16S2(I2N)2
_symmetry_space_group_name_H-M   'P 1'
_cell_length_a   12.33460125
_cell_length_b   12.29787799
_cell_length_c   20.02966700
_cell_angle_alpha   93.04594975
_cell_angle_beta   91.47724377
_cell_angle_gamma   90.70760979
_symmetry_Int_Tables_number   1
_chemical_formula_structural   H18PbC16S2(I2N)2
_chemical_formula_sum   'H72 Pb4 C64 S8 I16 N8'
_cell_volume   3032.70139470
_cell_formula_units_Z   4
loop_
 _symmetry_equiv_pos_site_id
 _symmetry_equiv_pos_as_xyz
  1  'x, y, z'
loop_
 _atom_site_type_symbol
 _atom_site_label
 _atom_site_symmetry_multiplicity
 _atom_site_fract_x
 _atom_site_fract_y
 _atom_site_fract_z
 _atom_site_occupancy
  H  H0  1  0.25617167  0.30421095  0.91634439  1
  H  H1  1  0.27080636  0.37255438  0.84751811  1
  H  H2  1  0.34145705  0.25996177  0.85825152  1
  H  H3  1  0.17764080  0.14786101  0.85297409  1
  H  H4  1  0.10093181  0.26818300  0.84602049  1
  H  H5  1  0.25979837  0.05954630  0.75513349  1
  H  H6  1  0.27705341  0.04457543  0.63254624  1
  H  H7  1  0.18342012  0.01743777  0.51810139  1
  H  H8  1  0.21212221  0.05615630  0.39226489  1
  H  H9  1  0.27842755  0.13546882  0.29058131  1
  H  H10  1  0.37312503  0.18205572  0.17517025  1
  H  H11  1  0.37665292  0.32065302  0.15234981  1
  H  H12  1  0.23967815  0.20441219  0.09175976  1
  H  H13  1  0.17268992  0.18704815  0.16176407  1
  H  H14  1  0.18658137  0.31304763  0.13173749  1
  H  H15  1  0.33485815  0.47499721  0.24614482  1
  H  H16  1  0.12753139  0.35804619  0.61761436  1
  H  H17  1  0.11120811  0.37309600  0.74030038  1
  H  H18  1  0.30270630  0.72955435  0.90799818  1
  H  H19  1  0.34758672  0.70154934  0.83182620  1
  H  H20  1  0.22668505  0.65045490  0.85277777  1
  H  H21  1  0.14249735  0.82120164  0.85841850  1
  H  H22  1  0.26989977  0.88887548  0.85173819  1
  H  H23  1  0.04396697  0.74712383  0.75776395  1
  H  H24  1  0.02570258  0.73051871  0.63449816  1
  H  H25  1  0.00751230  0.81674946  0.52391051  1
  H  H26  1  0.04795397  0.79152212  0.39576229  1
  H  H27  1  0.12841492  0.71128596  0.28997830  1
  H  H28  1  0.18444270  0.63138192  0.16689245  1
  H  H29  1  0.32441241  0.63599514  0.14605953  1
  H  H30  1  0.22694563  0.77060873  0.08991528  1
  H  H31  1  0.17812855  0.82956099  0.15979157  1
  H  H32  1  0.31136876  0.83495180  0.14592001  1
  H  H33  1  0.47002182  0.69150390  0.24026378  1
  H  H34  1  0.35266315  0.85494725  0.62003883  1
  H  H35  1  0.37009484  0.87079677  0.74320269  1
  H  H36  1  0.70946746  0.23337159  0.08350422  1
  H  H37  1  0.64335152  0.21117295  0.15309258  1
  H  H38  1  0.75892954  0.14738527  0.13703471  1
  H  H39  1  0.86324735  0.31384781  0.14714318  1
  H  H40  1  0.74111017  0.38827238  0.15543582  1
  H  H41  1  0.94788598  0.23204906  0.24384494  1
  H  H42  1  0.96006968  0.21943430  0.36645174  1
  H  H43  1  0.98341014  0.30920863  0.48106720  1
  H  H44  1  0.94148354  0.27840258  0.60646260  1
  H  H45  1  0.85965986  0.21295309  0.70790094  1
  H  H46  1  0.81152350  0.12614224  0.82289621  1
  H  H47  1  0.67311938  0.10870961  0.84317732  1
  H  H48  1  0.77822014  0.25123747  0.91111707  1
  H  H49  1  0.77997779  0.32766434  0.84503856  1
  H  H50  1  0.66159971  0.29324486  0.87798734  1
  H  H51  1  0.51915337  0.16640514  0.75479174  1
  H  H52  1  0.64698439  0.37030408  0.38392207  1
  H  H53  1  0.63481007  0.38178057  0.26111491  1
  H  H54  1  0.76831764  0.69968885  0.08235484  1
  H  H55  1  0.80741377  0.64855546  0.15417309  1
  H  H56  1  0.85413140  0.76908268  0.13414683  1
  H  H57  1  0.68491980  0.85665965  0.14406193  1
  H  H58  1  0.61869597  0.72821861  0.14958394  1
  H  H59  1  0.75465650  0.95528791  0.24516916  1
  H  H60  1  0.77034433  0.97114834  0.36844810  1
  H  H61  1  0.68889286  0.98368372  0.48067956  1
  H  H62  1  0.71320550  0.94276709  0.60718312  1
  H  H63  1  0.78768778  0.86334469  0.71107683  1
  H  H64  1  0.88135394  0.81346446  0.82821974  1
  H  H65  1  0.88694954  0.67414427  0.84827203  1
  H  H66  1  0.76009673  0.77850114  0.91346385  1
  H  H67  1  0.68258109  0.80657746  0.84713326  1
  H  H68  1  0.69704178  0.67722076  0.86963149  1
  H  H69  1  0.83090114  0.52248709  0.75457328  1
  H  H70  1  0.66536535  0.63568894  0.37628409  1
  H  H71  1  0.65417557  0.61943902  0.25320275  1
  Pb  Pb72  1  0.01057061  0.01213021  0.00300438  1
  Pb  Pb73  1  0.01523883  0.50227264  0.00817802  1
  Pb  Pb74  1  0.49813123  0.98359072  0.00390674  1
  Pb  Pb75  1  0.50705816  0.49753071  0.98606185  1
  C  C76  1  0.17582472  0.22754149  0.83109833  1
  C  C77  1  0.18603873  0.21835959  0.75651447  1
  C  C78  1  0.23177659  0.12582231  0.72519377  1
  C  C79  1  0.24059617  0.11673840  0.65598488  1
  C  C80  1  0.20385059  0.20013050  0.61586834  1
  C  C81  1  0.21335793  0.18983958  0.54332970  1
  C  C82  1  0.20354062  0.09753064  0.50072840  1
  C  C83  1  0.21812756  0.11858266  0.43287963  1
  C  C84  1  0.24088644  0.22742660  0.42286759  1
  C  C85  1  0.26598252  0.27634710  0.36094565  1
  C  C86  1  0.28287706  0.22364383  0.29929389  1
  C  C87  1  0.30979578  0.29618957  0.24908937  1
  C  C88  1  0.33007342  0.25983303  0.17830466  1
  C  C89  1  0.31378790  0.40359757  0.27301896  1
  C  C90  1  0.15800557  0.29291153  0.64765426  1
  C  C91  1  0.14872269  0.30140328  0.71673143  1
  C  C92  1  0.22082724  0.81765768  0.83381656  1
  C  C93  1  0.20794413  0.81038322  0.75896765  1
  C  C94  1  0.11121895  0.77178301  0.72752795  1
  C  C95  1  0.10084858  0.76275946  0.65813283  1
  C  C96  1  0.18764335  0.79210719  0.61815239  1
  C  C97  1  0.17732142  0.78302087  0.54544064  1
  C  C98  1  0.08658104  0.79557210  0.50443298  1
  C  C99  1  0.10830611  0.78231112  0.43560991  1
  C  C100  1  0.21591708  0.75806047  0.42341559  1
  C  C101  1  0.26624072  0.73701177  0.35988689  1
  C  C102  1  0.21608399  0.71653186  0.29774213  1
  C  C103  1  0.29125762  0.69880345  0.24579057  1
  C  C104  1  0.26045412  0.67873032  0.17365466  1
  C  C105  1  0.39759729  0.70452770  0.26904938  1
  C  C106  1  0.28489974  0.83017490  0.65007019  1
  C  C107  1  0.29462503  0.83942062  0.71936588  1
  C  C108  1  0.78315100  0.31434744  0.16940391  1
  C  C109  1  0.78961021  0.30578016  0.24381403  1
  C  C110  1  0.88155413  0.26208400  0.27449400  1
  C  C111  1  0.88877999  0.25550771  0.34361031  1
  C  C112  1  0.80391540  0.29287601  0.38432057  1
  C  C113  1  0.81168931  0.28340994  0.45673478  1
  C  C114  1  0.90282387  0.29059058  0.49875190  1
  C  C115  1  0.88017280  0.27474509  0.56631348  1
  C  C116  1  0.77123901  0.25386829  0.57693105  1
  C  C117  1  0.72117739  0.23008039  0.63914628  1
  C  C118  1  0.77182385  0.21198331  0.70019496  1
  C  C119  1  0.69770924  0.18703541  0.75071140  1
  C  C120  1  0.73111433  0.16347829  0.82058573  1
  C  C121  1  0.59121573  0.18587721  0.72752704  1
  C  C122  1  0.71228558  0.33793603  0.35326329  1
  C  C123  1  0.70537076  0.34433395  0.28412852  1
  C  C124  1  0.69095481  0.77681888  0.16552838  1
  C  C125  1  0.70412606  0.78610190  0.24038935  1
  C  C126  1  0.73579915  0.88485266  0.27391348  1
  C  C127  1  0.74364599  0.89409086  0.34348861  1
  C  C128  1  0.71911028  0.80461094  0.38192347  1
  C  C129  1  0.72632244  0.81408194  0.45490013  1
  C  C130  1  0.71140206  0.90435660  0.49804384  1
  C  C131  1  0.72407638  0.88224879  0.56627573  1
  C  C132  1  0.75010710  0.77452425  0.57633373  1
  C  C133  1  0.77187515  0.72433479  0.63894706  1
  C  C134  1  0.78849319  0.77524077  0.70188453  1
  C  C135  1  0.81110327  0.70122032  0.75255523  1
  C  C136  1  0.83734339  0.73498405  0.82397436  1
  C  C137  1  0.81195906  0.59437103  0.72747843  1
  C  C138  1  0.68766857  0.70550463  0.34783904  1
  C  C139  1  0.68093659  0.69646859  0.27839885  1
  S  S140  1  0.28370141  0.41626954  0.35587691  1
  S  S141  1  0.24234904  0.30298143  0.49846574  1
  S  S142  1  0.40652368  0.73346745  0.35332232  1
  S  S143  1  0.28935925  0.75237044  0.49790430  1
  S  S144  1  0.58132601  0.21629214  0.64538420  1
  S  S145  1  0.69752182  0.25537906  0.50205417  1
  S  S146  1  0.78401633  0.58393147  0.64334219  1
  S  S147  1  0.75819524  0.70170609  0.50013798  1
  I  I148  1  0.25469400  0.07759235  0.98702315  1
  I  I149  1  0.25768461  0.44261133  0.02735512  1
  I  I150  1  0.75082072  0.96667213  0.02200303  1
  I  I151  1  0.75593015  0.53718283  0.97068501  1
  I  I152  1  0.92705120  0.25657852  0.00409142  1
  I  I153  1  1.01383487  0.75766320  0.00462556  1
  I  I154  1  0.53430674  0.24172012  0.97696248  1
  I  I155  1  0.41941404  0.74114562  0.01156020  1
  I  I156  1  0.98517765  0.00516387  0.84671928  1
  I  I157  1  0.04858736  0.00891884  0.17053577  1
  I  I158  1  0.06734685  0.51637455  0.85018266  1
  I  I159  1  0.98773478  0.52598617  0.16708973  1
  I  I160  1  0.52306312  0.92973396  0.84468890  1
  I  I161  1  0.47869618  0.99127300  0.16342831  1
  I  I162  1  0.47898078  0.49903563  0.82621609  1
  I  I163  1  0.54217765  0.49598763  0.14368224  1
  N  N164  1  0.26686131  0.29486546  0.86500307  1
  N  N165  1  0.22492775  0.24035095  0.13903881  1
  N  N166  1  0.27806820  0.71888029  0.85780282  1
  N  N167  1  0.24258622  0.78500800  0.14058967  1
  N  N168  1  0.71956200  0.22056823  0.13403172  1
  N  N169  1  0.73818526  0.26579801  0.86589318  1
  N  N170  1  0.78541691  0.72028604  0.13238487  1
  N  N171  1  0.73778674  0.75039703  0.86542894  1
