# generated using pymatgen
data_H16PbC14S3(I2N)2
_symmetry_space_group_name_H-M   'P 1'
_cell_length_a   12.28995938
_cell_length_b   12.44550698
_cell_length_c   19.66859840
_cell_angle_alpha   85.53293861
_cell_angle_beta   87.45986639
_cell_angle_gamma   92.66552610
_symmetry_Int_Tables_number   1
_chemical_formula_structural   H16PbC14S3(I2N)2
_chemical_formula_sum   'H64 Pb4 C56 S12 I16 N8'
_cell_volume   2992.54872602
_cell_formula_units_Z   4
loop_
 _symmetry_equiv_pos_site_id
 _symmetry_equiv_pos_as_xyz
  1  'x, y, z'
loop_
 _atom_site_type_symbol
 _atom_site_label
 _atom_site_symmetry_multiplicity
 _atom_site_fract_x
 _atom_site_fract_y
 _atom_site_fract_z
 _atom_site_occupancy
  H  H0  1  0.31838009  0.35123918  0.84141871  1
  H  H1  1  0.25557400  0.27452651  0.90505980  1
  H  H2  1  0.32629894  0.21598638  0.84364793  1
  H  H3  1  0.13810555  0.18859775  0.82450394  1
  H  H4  1  0.11406754  0.32561967  0.83796850  1
  H  H5  1  0.16628947  0.47935295  0.73705800  1
  H  H6  1  0.18286542  0.05549747  0.59614681  1
  H  H7  1  0.21093087  0.00566806  0.46999492  1
  H  H8  1  0.31312374  0.00333581  0.36115407  1
  H  H9  1  0.33627321  0.04296773  0.22776290  1
  H  H10  1  0.36604119  0.20510423  0.13950641  1
  H  H11  1  0.35863387  0.33758617  0.16666926  1
  H  H12  1  0.17813011  0.19720448  0.12223250  1
  H  H13  1  0.22851746  0.31622868  0.08628092  1
  H  H14  1  0.15460322  0.31349408  0.15925701  1
  H  H15  1  0.21674547  0.14284872  0.70225002  1
  H  H16  1  0.34310181  0.66270633  0.84489609  1
  H  H17  1  0.26718752  0.71708583  0.90464627  1
  H  H18  1  0.20713959  0.66241121  0.84003394  1
  H  H19  1  0.20881025  0.85568095  0.82158509  1
  H  H20  1  0.34985492  0.86342055  0.83670071  1
  H  H21  1  0.49384064  0.83127605  0.73682853  1
  H  H22  1  0.06020804  0.81902382  0.58844646  1
  H  H23  1  0.00726149  0.78674909  0.46401448  1
  H  H24  1  -0.00385216  0.68941873  0.36194922  1
  H  H25  1  0.03711002  0.65829570  0.23251065  1
  H  H26  1  0.19758651  0.62986496  0.15055486  1
  H  H27  1  0.32953025  0.62448875  0.18360357  1
  H  H28  1  0.22900797  0.81920564  0.12121218  1
  H  H29  1  0.33574883  0.75656832  0.09178962  1
  H  H30  1  0.34674028  0.82528529  0.16074827  1
  H  H31  1  0.14745398  0.78574073  0.69992235  1
  H  H32  1  0.66565803  0.14806700  0.16228053  1
  H  H33  1  0.74550855  0.21173172  0.09996246  1
  H  H34  1  0.80058703  0.15880973  0.17032251  1
  H  H35  1  0.79778457  0.35474002  0.17076205  1
  H  H36  1  0.65661300  0.34762855  0.15312395  1
  H  H37  1  0.51088373  0.30758177  0.25618658  1
  H  H38  1  0.94338171  0.31964474  0.40418238  1
  H  H39  1  0.99652090  0.28720141  0.53144161  1
  H  H40  1  1.00338849  0.19518529  0.64149066  1
  H  H41  1  0.96471219  0.16099845  0.77449790  1
  H  H42  1  0.80557754  0.13068101  0.86280159  1
  H  H43  1  0.66992669  0.12295858  0.83384817  1
  H  H44  1  0.79699122  0.32684672  0.85724931  1
  H  H45  1  0.69102081  0.26651608  0.90683427  1
  H  H46  1  0.67086535  0.31947969  0.82842187  1
  H  H47  1  0.85537266  0.28535124  0.29782541  1
  H  H48  1  0.84234831  0.67204695  0.15631525  1
  H  H49  1  0.78947775  0.75252590  0.09656167  1
  H  H50  1  0.84650947  0.80836042  0.16264012  1
  H  H51  1  0.65435003  0.80961888  0.17819260  1
  H  H52  1  0.64027064  0.67087498  0.16190341  1
  H  H53  1  0.67431489  0.52013731  0.26256727  1
  H  H54  1  0.68348418  0.93995623  0.40961675  1
  H  H55  1  0.71791819  0.98965177  0.53412937  1
  H  H56  1  0.82513630  0.99919111  0.63484028  1
  H  H57  1  0.85600608  0.95902605  0.76579815  1
  H  H58  1  0.88041328  0.80001067  0.85225589  1
  H  H59  1  0.87963273  0.66761863  0.82324158  1
  H  H60  1  0.69349569  0.77923516  0.88062232  1
  H  H61  1  0.74545301  0.66442876  0.90945413  1
  H  H62  1  0.67390952  0.66622941  0.83875864  1
  H  H63  1  0.72442188  0.86003955  0.29963562  1
  Pb  Pb64  1  0.98870153  0.98218827  0.01152044  1
  Pb  Pb65  1  0.99412300  0.48937622  0.00435379  1
  Pb  Pb66  1  0.49167250  0.01283415  0.99755433  1
  Pb  Pb67  1  0.50383394  0.50637780  0.99152012  1
  C  C68  1  0.17118859  0.27224959  0.81465973  1
  C  C69  1  0.18974006  0.30327927  0.73992771  1
  C  C70  1  0.18399902  0.40773200  0.71114290  1
  C  C71  1  0.21642658  0.27688384  0.62367626  1
  C  C72  1  0.22774530  0.22324454  0.56133974  1
  C  C73  1  0.20923266  0.11384524  0.55379373  1
  C  C74  1  0.22453534  0.08679941  0.48600827  1
  C  C75  1  0.25504259  0.17499552  0.44032026  1
  C  C76  1  0.27694282  0.17222301  0.36780955  1
  C  C77  1  0.30172355  0.08152193  0.33433366  1
  C  C78  1  0.31359736  0.10237512  0.26292643  1
  C  C79  1  0.30000109  0.20861085  0.24087668  1
  C  C80  1  0.31657774  0.25729636  0.16966456  1
  C  C81  1  0.20930747  0.22899884  0.68994257  1
  C  C82  1  0.28617892  0.81678669  0.81276081  1
  C  C83  1  0.31342884  0.80881460  0.73865249  1
  C  C84  1  0.41902423  0.81723537  0.71073767  1
  C  C85  1  0.28192381  0.78997500  0.62325252  1
  C  C86  1  0.22633438  0.77784097  0.56082326  1
  C  C87  1  0.11715232  0.79343502  0.54955956  1
  C  C88  1  0.08851497  0.77632656  0.48257682  1
  C  C89  1  0.17508555  0.74681192  0.44128200  1
  C  C90  1  0.17065628  0.72247704  0.37080966  1
  C  C91  1  0.07708492  0.69776453  0.33680824  1
  C  C92  1  0.09853330  0.68196780  0.26740229  1
  C  C93  1  0.20779526  0.69288837  0.24763633  1
  C  C94  1  0.25720557  0.67293970  0.17995891  1
  C  C95  1  0.23524551  0.79336714  0.68859676  1
  C  C96  1  0.72017828  0.30773723  0.18173240  1
  C  C97  1  0.69078707  0.29694313  0.25663948  1
  C  C98  1  0.58502279  0.29826359  0.28353995  1
  C  C99  1  0.72012858  0.28166381  0.37389137  1
  C  C100  1  0.77506070  0.27292940  0.43726176  1
  C  C101  1  0.88556539  0.29195830  0.44613386  1
  C  C102  1  0.91413163  0.27488026  0.51444073  1
  C  C103  1  0.82582923  0.24282874  0.55919872  1
  C  C104  1  0.82987519  0.21862390  0.63190247  1
  C  C105  1  0.92340726  0.19829759  0.66692377  1
  C  C106  1  0.90316527  0.18061896  0.73801223  1
  C  C107  1  0.79465001  0.18477449  0.75797534  1
  C  C108  1  0.74807568  0.17027004  0.82908482  1
  C  C109  1  0.76777904  0.28740899  0.30837258  1
  C  C110  1  0.69005933  0.73066174  0.18661684  1
  C  C111  1  0.69838013  0.69863624  0.26095210  1
  C  C112  1  0.68950682  0.59277685  0.28869030  1
  C  C113  1  0.71677681  0.72360740  0.37688560  1
  C  C114  1  0.72837658  0.77609775  0.43937505  1
  C  C115  1  0.71118943  0.88337232  0.44945985  1
  C  C116  1  0.72953954  0.91009100  0.51635416  1
  C  C117  1  0.76120931  0.82381429  0.55883566  1
  C  C118  1  0.78707270  0.82712418  0.62956855  1
  C  C119  1  0.81493070  0.91938957  0.66171637  1
  C  C120  1  0.83114807  0.89829328  0.73190464  1
  C  C121  1  0.81738392  0.79039185  0.75396338  1
  C  C122  1  0.83472636  0.74197467  0.82358206  1
  C  C123  1  0.71424618  0.77305342  0.31136215  1
  S  S124  1  0.20046902  0.41498645  0.62415573  1
  S  S125  1  0.27018477  0.28377377  0.30950577  1
  S  S126  1  0.26603025  0.29178459  0.48294633  1
  S  S127  1  0.42301997  0.80690285  0.62460099  1
  S  S128  1  0.28529534  0.72382754  0.31575122  1
  S  S129  1  0.29238653  0.73948966  0.48720384  1
  S  S130  1  0.57941322  0.28878453  0.37076222  1
  S  S131  1  0.71626307  0.21221616  0.68806843  1
  S  S132  1  0.70705062  0.23317224  0.51508412  1
  S  S133  1  0.69954058  0.58429654  0.37533962  1
  S  S134  1  0.78316551  0.71377339  0.68723184  1
  S  S135  1  0.76891271  0.70912877  0.51421881  1
  I  I136  1  0.24227775  0.03509972  0.04753197  1
  I  I137  1  0.25195404  0.45248217  0.98311133  1
  I  I138  1  0.74010344  0.92997490  0.97536865  1
  I  I139  1  0.75447231  0.56233285  0.02116849  1
  I  I140  1  0.96330354  0.23243537  0.99524158  1
  I  I141  1  0.07676698  0.73386367  0.01746806  1
  I  I142  1  0.56909894  0.25846051  0.01199190  1
  I  I143  1  0.45005028  0.75685034  0.98063357  1
  I  I144  1  0.04825711  0.98150445  0.85650040  1
  I  I145  1  0.92590829  0.99079397  0.17902787  1
  I  I146  1  0.95745744  0.47873982  0.84132027  1
  I  I147  1  0.00437791  0.44971887  0.16741917  1
  I  I148  1  0.45311809  0.07535070  0.83668096  1
  I  I149  1  0.52752485  0.98060949  0.15838033  1
  I  I150  1  0.50772053  0.52000640  0.82098443  1
  I  I151  1  0.48911968  0.50812712  0.14934432  1
  N  N152  1  0.27438087  0.27883886  0.85315339  1
  N  N153  1  0.21227385  0.27125180  0.13298123  1
  N  N154  1  0.27454312  0.70728699  0.85270752  1
  N  N155  1  0.29397289  0.77490894  0.13659008  1
  N  N156  1  0.73434760  0.20038150  0.15250605  1
  N  N157  1  0.72577102  0.27765178  0.85708287  1
  N  N158  1  0.79993088  0.74110167  0.14849947  1
  N  N159  1  0.72950143  0.71132646  0.86471462  1
