# generated using pymatgen
data_H16PbC14S3(I2N)2
_symmetry_space_group_name_H-M   'P 1'
_cell_length_a   12.50157501
_cell_length_b   12.42874984
_cell_length_c   19.68266600
_cell_angle_alpha   92.71537287
_cell_angle_beta   93.64680322
_cell_angle_gamma   90.31463296
_symmetry_Int_Tables_number   1
_chemical_formula_structural   H16PbC14S3(I2N)2
_chemical_formula_sum   'H64 Pb4 C56 S12 I16 N8'
_cell_volume   3048.54143506
_cell_formula_units_Z   4
loop_
 _symmetry_equiv_pos_site_id
 _symmetry_equiv_pos_as_xyz
  1  'x, y, z'
loop_
 _atom_site_type_symbol
 _atom_site_label
 _atom_site_symmetry_multiplicity
 _atom_site_fract_x
 _atom_site_fract_y
 _atom_site_fract_z
 _atom_site_occupancy
  H  H0  1  0.26764662  0.35462827  0.91228058  1
  H  H1  1  0.30377464  0.23890904  0.87182392  1
  H  H2  1  0.33991653  0.35785844  0.84404659  1
  H  H3  1  0.16102767  0.40483192  0.80952130  1
  H  H4  1  0.11101375  0.29385888  0.85161955  1
  H  H5  1  0.13199961  0.09441210  0.79846869  1
  H  H6  1  0.24667581  0.02630904  0.54543756  1
  H  H7  1  0.27306144  0.07533809  0.41996483  1
  H  H8  1  0.26017273  0.47302450  0.42103754  1
  H  H9  1  0.39130522  0.31829589  0.18539867  1
  H  H10  1  0.32567653  0.19287213  0.19328252  1
  H  H11  1  0.16420341  0.26656868  0.14480193  1
  H  H12  1  0.20812044  0.39281558  0.15468688  1
  H  H13  1  0.26374224  0.30581028  0.09948510  1
  H  H14  1  0.28037881  0.15656189  0.31510960  1
  H  H15  1  0.23002758  0.36520031  0.68193831  1
  H  H16  1  0.37931119  0.74188913  0.90740699  1
  H  H17  1  0.25311770  0.71410865  0.88128105  1
  H  H18  1  0.35412217  0.65655890  0.84035073  1
  H  H19  1  0.41216216  0.83102757  0.80419138  1
  H  H20  1  0.31129083  0.89262009  0.85156818  1
  H  H21  1  0.09871665  0.84477995  0.80733818  1
  H  H22  1  0.01987709  0.74889784  0.54031131  1
  H  H23  1  0.06994737  0.72575374  0.41338953  1
  H  H24  1  0.46556770  0.73758891  0.41887778  1
  H  H25  1  0.28756655  0.62563006  0.17387973  1
  H  H26  1  0.17578432  0.70989205  0.18755185  1
  H  H27  1  0.27115774  0.85847209  0.14964043  1
  H  H28  1  0.38709454  0.79296070  0.14884232  1
  H  H29  1  0.28559361  0.75565571  0.09400666  1
  H  H30  1  0.14871899  0.73538325  0.31058729  1
  H  H31  1  0.36217665  0.77590497  0.67646055  1
  H  H32  1  0.62105956  0.24107253  0.09341891  1
  H  H33  1  0.74120296  0.20380209  0.12284679  1
  H  H34  1  0.63003059  0.15814190  0.15699207  1
  H  H35  1  0.58668550  0.33293332  0.20217527  1
  H  H36  1  0.68747002  0.39050145  0.15589887  1
  H  H37  1  0.89834920  0.35383014  0.19880201  1
  H  H38  1  0.97955730  0.25110705  0.45989077  1
  H  H39  1  0.92917034  0.22432577  0.58510889  1
  H  H40  1  0.53377371  0.24566016  0.57691331  1
  H  H41  1  0.68400515  0.09817788  0.81364555  1
  H  H42  1  0.80769090  0.16597239  0.80721504  1
  H  H43  1  0.73444976  0.32682623  0.85308432  1
  H  H44  1  0.60863315  0.27216761  0.85052835  1
  H  H45  1  0.70622628  0.22397881  0.90253548  1
  H  H46  1  0.84484585  0.21409899  0.68889866  1
  H  H47  1  0.63812038  0.27253579  0.32582062  1
  H  H48  1  0.78768276  0.63727058  0.09260803  1
  H  H49  1  0.81359900  0.76213023  0.12410616  1
  H  H50  1  0.86841106  0.65625663  0.16234271  1
  H  H51  1  0.69514422  0.59143676  0.19138093  1
  H  H52  1  0.63271119  0.69126400  0.14221811  1
  H  H53  1  0.65879205  0.90217545  0.18895430  1
  H  H54  1  0.74870605  0.98140289  0.45686275  1
  H  H55  1  0.77395094  0.92967879  0.58423154  1
  H  H56  1  0.74933501  0.53168675  0.57483075  1
  H  H57  1  0.90747184  0.67765715  0.81964567  1
  H  H58  1  0.83720296  0.80041086  0.81111582  1
  H  H59  1  0.67492909  0.69512413  0.84141902  1
  H  H60  1  0.75677737  0.58932028  0.85314133  1
  H  H61  1  0.77873764  0.70261026  0.90144211  1
  H  H62  1  0.79284446  0.84118847  0.68916366  1
  H  H63  1  0.74133117  0.64029521  0.32235346  1
  Pb  Pb64  1  0.00277759  0.98995620  0.00836937  1
  Pb  Pb65  1  -0.00679868  0.49257261  0.00134127  1
  Pb  Pb66  1  0.49121667  0.01735324  0.99518990  1
  Pb  Pb67  1  0.49547041  0.50360336  0.99235816  1
  C  C68  1  0.17500730  0.32019767  0.82039969  1
  C  C69  1  0.18042973  0.24947712  0.75712795  1
  C  C70  1  0.15830135  0.14050796  0.75680927  1
  C  C71  1  0.20706257  0.19851005  0.64325757  1
  C  C72  1  0.22761209  0.19730770  0.57171677  1
  C  C73  1  0.24420066  0.10844078  0.52833113  1
  C  C74  1  0.25844297  0.13499041  0.46054715  1
  C  C75  1  0.25335642  0.24462734  0.45053867  1
  C  C76  1  0.26646760  0.29926229  0.38779933  1
  C  C77  1  0.26898221  0.41006637  0.38159943  1
  C  C78  1  0.29367157  0.31192488  0.27146086  1
  C  C79  1  0.31717281  0.28043770  0.20017688  1
  C  C80  1  0.27997065  0.24382873  0.32334086  1
  C  C81  1  0.20878856  0.28265095  0.69228178  1
  C  C82  1  0.32973460  0.82202494  0.81896722  1
  C  C83  1  0.25167143  0.80936662  0.75851184  1
  C  C84  1  0.14253933  0.82148271  0.76289881  1
  C  C85  1  0.19255089  0.78414612  0.64348312  1
  C  C86  1  0.18995814  0.76796742  0.57029242  1
  C  C87  1  0.10173771  0.75206146  0.52447020  1
  C  C88  1  0.12881081  0.73983390  0.45604280  1
  C  C89  1  0.23807248  0.74655992  0.44802545  1
  C  C90  1  0.29204256  0.73843452  0.38467881  1
  C  C91  1  0.40201016  0.73446209  0.37844971  1
  C  C92  1  0.30141850  0.72628980  0.26562360  1
  C  C93  1  0.26328991  0.70573840  0.19297696  1
  C  C94  1  0.23555740  0.73414278  0.31893518  1
  C  C95  1  0.28002775  0.78764310  0.69052215  1
  C  C96  1  0.66856319  0.32228652  0.18655556  1
  C  C97  1  0.74722432  0.31325139  0.24606848  1
  C  C98  1  0.85575655  0.33127493  0.24256151  1
  C  C99  1  0.80717018  0.29155626  0.35968349  1
  C  C100  1  0.81014850  0.27344885  0.43166672  1
  C  C101  1  0.89791363  0.25514780  0.47614019  1
  C  C102  1  0.87057737  0.24068376  0.54366077  1
  C  C103  1  0.76146311  0.24755791  0.55210806  1
  C  C104  1  0.70541650  0.23437334  0.61372527  1
  C  C105  1  0.59494931  0.23460546  0.61769079  1
  C  C106  1  0.68881974  0.20339961  0.72954535  1
  C  C107  1  0.72041621  0.17445426  0.80061475  1
  C  C108  1  0.75822949  0.21725025  0.67905928  1
  C  C109  1  0.71961365  0.29002325  0.31275055  1
  C  C110  1  0.70121001  0.67561110  0.17791286  1
  C  C111  1  0.70317107  0.75119300  0.23912671  1
  C  C112  1  0.68110421  0.85923376  0.23443988  1
  C  C113  1  0.71380680  0.80806227  0.35446175  1
  C  C114  1  0.72869580  0.81071634  0.42782916  1
  C  C115  1  0.74496392  0.89898022  0.47318517  1
  C  C116  1  0.75895567  0.87088862  0.54186960  1
  C  C117  1  0.75337414  0.76085739  0.55020065  1
  C  C118  1  0.76619734  0.70321719  0.61263536  1
  C  C119  1  0.76321282  0.59202533  0.61632715  1
  C  C120  1  0.79873351  0.68283839  0.73014268  1
  C  C121  1  0.83012684  0.71243907  0.80288801  1
  C  C122  1  0.78573015  0.75440860  0.67905166  1
  C  C123  1  0.72210512  0.72178940  0.30772235  1
  S  S124  1  0.17032572  0.07910171  0.67856095  1
  S  S125  1  0.29030503  0.44532614  0.30073848  1
  S  S126  1  0.22955907  0.31442617  0.52677441  1
  S  S127  1  0.07519735  0.80675328  0.68470094  1
  S  S128  1  0.43474494  0.72307964  0.29542146  1
  S  S129  1  0.30704439  0.76876494  0.52694747  1
  S  S130  1  0.92350074  0.32171411  0.32007935  1
  S  S131  1  0.55682008  0.21161068  0.69748926  1
  S  S132  1  0.69312957  0.27349592  0.47499468  1
  S  S133  1  0.68143019  0.92467280  0.31252432  1
  S  S134  1  0.78661504  0.55101374  0.69733241  1
  S  S135  1  0.72948910  0.69249951  0.47158755  1
  I  I136  1  0.24220954  0.92586095  0.99040502  1
  I  I137  1  0.23594932  0.55989016  0.98345485  1
  I  I138  1  0.73573636  0.08111252  0.99547476  1
  I  I139  1  0.73866757  0.44674361  0.02213682  1
  I  I140  1  0.04358361  0.24763387  0.01805834  1
  I  I141  1  0.92116001  0.74393003  0.99184202  1
  I  I142  1  0.42050816  0.26081340  0.02122856  1
  I  I143  1  0.55172188  0.75583828  0.99074663  1
  I  I144  1  0.94593561  0.99647571  0.84715935  1
  I  I145  1  0.03603441  0.96412315  0.16790501  1
  I  I146  1  0.90810714  0.43616871  0.84569236  1
  I  I147  1  0.03079258  0.52924125  0.16456957  1
  I  I148  1  0.45088480  0.08647883  0.84271669  1
  I  I149  1  0.47331107  0.02440457  0.16145129  1
  I  I150  1  0.48557188  0.49544516  0.81989351  1
  I  I151  1  0.46440003  0.52348097  0.14703946  1
  N  N152  1  0.27749476  0.31717024  0.86502318  1
  N  N153  1  0.23273503  0.31375152  0.14737664  1
  N  N154  1  0.32792804  0.72764447  0.86397481  1
  N  N155  1  0.30489207  0.78303211  0.14382555  1
  N  N156  1  0.66640682  0.22536877  0.13780115  1
  N  N157  1  0.68962777  0.25605485  0.85493616  1
  N  N158  1  0.79865535  0.68463120  0.13754043  1
  N  N159  1  0.75294539  0.67287494  0.85226974  1
