# generated using pymatgen
data_H6PbC3S(I2N)2
_symmetry_space_group_name_H-M   'P 1'
_cell_length_a   11.94869601
_cell_length_b   12.08883952
_cell_length_c   9.95921912
_cell_angle_alpha   88.16273014
_cell_angle_beta   88.24788217
_cell_angle_gamma   93.44623006
_symmetry_Int_Tables_number   1
_chemical_formula_structural   H6PbC3S(I2N)2
_chemical_formula_sum   'H24 Pb4 C12 S4 I16 N8'
_cell_volume   1434.46657523
_cell_formula_units_Z   4
loop_
 _symmetry_equiv_pos_site_id
 _symmetry_equiv_pos_as_xyz
  1  'x, y, z'
loop_
 _atom_site_type_symbol
 _atom_site_label
 _atom_site_symmetry_multiplicity
 _atom_site_fract_x
 _atom_site_fract_y
 _atom_site_fract_z
 _atom_site_occupancy
  H  H0  1  0.19676153  0.36043960  0.71184480  1
  H  H1  1  0.17309756  0.22036875  0.72746005  1
  H  H2  1  0.30333841  0.27848670  0.75322265  1
  H  H3  1  0.20647880  0.43823464  0.46843509  1
  H  H4  1  0.24356693  0.36768147  0.24359040  1
  H  H5  1  0.31897358  0.10428975  0.54589201  1
  H  H6  1  0.34314226  0.69928932  0.72799861  1
  H  H7  1  0.26631011  0.80806137  0.77552995  1
  H  H8  1  0.20352052  0.68040908  0.74274352  1
  H  H9  1  0.43074133  0.73446353  0.49079836  1
  H  H10  1  0.35934616  0.77470446  0.26482091  1
  H  H11  1  0.08130102  0.81125484  0.56400202  1
  H  H12  1  0.65947241  0.30428669  0.27342298  1
  H  H13  1  0.79958212  0.31916956  0.25728731  1
  H  H14  1  0.73283809  0.19308289  0.22601405  1
  H  H15  1  0.57222875  0.26970134  0.51094547  1
  H  H16  1  0.64492693  0.22588891  0.73662883  1
  H  H17  1  0.91940475  0.18660431  0.43510264  1
  H  H18  1  0.80327527  0.63918242  0.28618496  1
  H  H19  1  0.69449813  0.71946652  0.24590901  1
  H  H20  1  0.82487970  0.77903384  0.26849159  1
  H  H21  1  0.79174418  0.56137940  0.52964956  1
  H  H22  1  0.75785388  0.63384950  0.75422881  1
  H  H23  1  0.68327779  0.89670795  0.45087769  1
  Pb  Pb24  1  0.99831350  0.99473153  0.99876757  1
  Pb  Pb25  1  0.00205515  0.49795152  0.00246913  1
  Pb  Pb26  1  0.50359053  0.99905420  1.00112604  1
  Pb  Pb27  1  0.50215701  0.49758123  0.99724943  1
  C  C28  1  0.25506969  0.27371453  0.55100999  1
  C  C29  1  0.23293699  0.35482178  0.45329984  1
  C  C30  1  0.29365223  0.17931225  0.49435721  1
  C  C31  1  0.25851064  0.76624564  0.57093641  1
  C  C32  1  0.34511998  0.75632808  0.47444802  1
  C  C33  1  0.16064568  0.79665529  0.51330066  1
  C  C34  1  0.74339499  0.23505480  0.42982949  1
  C  C35  1  0.65735616  0.24597721  0.52682063  1
  C  C36  1  0.84077198  0.20249245  0.48664396  1
  C  C37  1  0.74497415  0.72634061  0.44649715  1
  C  C38  1  0.76638415  0.64521759  0.54443448  1
  C  C39  1  0.70793056  0.82155528  0.50269332  1
  S  S40  1  0.30174740  0.19185661  0.32468176  1
  S  S41  1  0.17527172  0.81380405  0.34392971  1
  S  S42  1  0.82677412  0.18442775  0.65595110  1
  S  S43  1  0.70135407  0.81002749  0.67249479  1
  I  I44  1  0.24322587  0.90056034  0.01000067  1
  I  I45  1  0.24995797  0.55159566  0.10601372  1
  I  I46  1  0.75566323  0.10201486  0.98713062  1
  I  I47  1  0.75011788  0.44644590  0.89031959  1
  I  I48  1  0.08157193  0.25145764  0.03688620  1
  I  I49  1  0.90055572  0.74814066  0.96673099  1
  I  I50  1  0.43680755  0.24650537  0.92875931  1
  I  I51  1  0.54525928  0.75016747  0.09617296  1
  I  I52  1  0.05225332  0.04752959  0.68157945  1
  I  I53  1  0.94855884  0.95142696  0.31616343  1
  I  I54  1  0.07143443  0.52095361  0.69062646  1
  I  I55  1  0.93036138  0.48101351  0.31356989  1
  I  I56  1  0.48798499  0.96931880  0.68738822  1
  I  I57  1  0.51549790  0.03580290  0.31349338  1
  I  I58  1  0.45837603  0.54275372  0.68636939  1
  I  I59  1  0.53969477  0.45258942  0.30988388  1
  N  N60  1  0.23220837  0.28456301  0.69344434  1
  N  N61  1  0.24940733  0.31810122  0.33030267  1
  N  N62  1  0.26848472  0.74015233  0.71289428  1
  N  N63  1  0.30981840  0.77700923  0.35145239  1
  N  N64  1  0.73342059  0.26135824  0.28797489  1
  N  N65  1  0.69286014  0.22381006  0.64937734  1
  N  N66  1  0.76687027  0.71463260  0.30421519  1
  N  N67  1  0.75125046  0.68269792  0.66722875  1
