# generated using pymatgen
data_H7PbC3SI4N3
_symmetry_space_group_name_H-M   'P 1'
_cell_length_a   12.20643443
_cell_length_b   12.03836246
_cell_length_c   10.46570486
_cell_angle_alpha   93.25148745
_cell_angle_beta   94.01297004
_cell_angle_gamma   89.71487270
_symmetry_Int_Tables_number   1
_chemical_formula_structural   H7PbC3SI4N3
_chemical_formula_sum   'H28 Pb4 C12 S4 I16 N12'
_cell_volume   1531.64709552
_cell_formula_units_Z   4
loop_
 _symmetry_equiv_pos_site_id
 _symmetry_equiv_pos_as_xyz
  1  'x, y, z'
loop_
 _atom_site_type_symbol
 _atom_site_label
 _atom_site_symmetry_multiplicity
 _atom_site_fract_x
 _atom_site_fract_y
 _atom_site_fract_z
 _atom_site_occupancy
  H  H0  1  0.27668762  0.22042340  0.82421177  1
  H  H1  1  0.37321605  0.19424914  0.72162689  1
  H  H2  1  0.32590021  0.32647467  0.74655460  1
  H  H3  1  0.20377731  0.12769173  0.62344806  1
  H  H4  1  0.14050102  0.25880513  0.66111530  1
  H  H5  1  0.27055289  0.10726876  0.37996852  1
  H  H6  1  0.29645855  0.23391795  0.20546155  1
  H  H7  1  0.20837545  0.72242800  0.81680168  1
  H  H8  1  0.18605027  0.62267449  0.70016882  1
  H  H9  1  0.31471593  0.67021740  0.73896391  1
  H  H10  1  0.12426741  0.80014961  0.62458484  1
  H  H11  1  0.25415144  0.85969704  0.67617720  1
  H  H12  1  0.10591852  0.73668008  0.36997935  1
  H  H13  1  0.23386677  0.71356234  0.19549887  1
  H  H14  1  0.78082337  0.21840529  0.17982488  1
  H  H15  1  0.80805583  0.12167148  0.28715385  1
  H  H16  1  0.67788394  0.16945342  0.26169697  1
  H  H17  1  0.87650527  0.29413121  0.37914691  1
  H  H18  1  0.74953750  0.36064760  0.33545628  1
  H  H19  1  0.89351398  0.23183735  0.62729260  1
  H  H20  1  0.76608750  0.21395619  0.79956016  1
  H  H21  1  0.76938945  0.77834225  0.17691527  1
  H  H22  1  0.86425173  0.81776025  0.29322226  1
  H  H23  1  0.83161818  0.68049856  0.26427873  1
  H  H24  1  0.68996254  0.86603168  0.36669288  1
  H  H25  1  0.63909980  0.72984059  0.31987712  1
  H  H26  1  0.75071609  0.89288607  0.62062106  1
  H  H27  1  0.78525328  0.76917574  0.80097811  1
  Pb  Pb28  1  0.00232977  0.00491147  0.00354101  1
  Pb  Pb29  1  0.00407851  0.49409764  0.99142703  1
  Pb  Pb30  1  0.49609009  0.99638929  0.99439900  1
  Pb  Pb31  1  0.51217252  0.50773180  0.01123587  1
  C  C32  1  0.21622768  0.21809220  0.63109649  1
  C  C33  1  0.24491645  0.25935039  0.50591716  1
  C  C34  1  0.26680243  0.19717380  0.39579123  1
  C  C35  1  0.21286573  0.78358719  0.63382617  1
  C  C36  1  0.25477744  0.75505648  0.50553585  1
  C  C37  1  0.19455591  0.73892726  0.38949967  1
  C  C38  1  0.78709727  0.28340083  0.36999699  1
  C  C39  1  0.74522110  0.25938306  0.49603282  1
  C  C40  1  0.80501176  0.23830490  0.60882046  1
  C  C41  1  0.71141021  0.77717190  0.36102743  1
  C  C42  1  0.74451359  0.73901347  0.49120529  1
  C  C43  1  0.75650783  0.80310428  0.60476927  1
  S  S44  1  0.24922382  0.39718536  0.47080603  1
  S  S45  1  0.39114002  0.74834040  0.47446175  1
  S  S46  1  0.60895051  0.26065932  0.52759387  1
  S  S47  1  0.76551384  0.60257602  0.52798129  1
  I  I48  1  0.24936355  0.09381106  0.01466836  1
  I  I49  1  0.25477389  0.43896908  0.00840231  1
  I  I50  1  0.74879244  0.92380894  0.98074840  1
  I  I51  1  0.75242579  0.58281841  0.98976336  1
  I  I52  1  0.90055922  0.24992905  0.99548186  1
  I  I53  1  0.07682250  0.74994385  0.00622812  1
  I  I54  1  0.56172113  0.25218467  -0.00006767  1
  I  I55  1  0.41284427  0.75446608  1.00169989  1
  I  I56  1  0.99112334  0.99795476  0.70787019  1
  I  I57  1  0.97203603  0.99489670  0.32469881  1
  I  I58  1  0.04217415  0.47311773  0.67598691  1
  I  I59  1  0.98370303  0.52249565  0.29377683  1
  I  I60  1  0.45178409  0.98841790  0.68270915  1
  I  I61  1  0.52183069  0.03118312  0.30426939  1
  I  I62  1  0.45989145  0.50437444  0.69732094  1
  I  I63  1  0.56329680  0.49750494  0.31874396  1
  N  N64  1  0.30373072  0.24277815  0.73657485  1
  N  N65  1  0.28483044  0.26365637  0.29905813  1
  N  N66  1  0.28008240  0.37200142  0.32315890  1
  N  N67  1  0.23271178  0.69452765  0.72677379  1
  N  N68  1  0.26145762  0.72315533  0.29181376  1
  N  N69  1  0.36816673  0.72401788  0.32031179  1
  N  N70  1  0.76059085  0.19278574  0.26902137  1
  N  N71  1  0.73782046  0.22499640  0.70468787  1
  N  N72  1  0.63122654  0.23352891  0.67783604  1
  N  N73  1  0.79961199  0.76127145  0.26926004  1
  N  N74  1  0.77921732  0.73878111  0.70555367  1
  N  N75  1  0.78921240  0.63094278  0.68140598  1
