# generated using pymatgen
data_H7PbC3SI4N3
_symmetry_space_group_name_H-M   'P 1'
_cell_length_a   12.34315046
_cell_length_b   12.65704340
_cell_length_c   10.02604476
_cell_angle_alpha   88.83002116
_cell_angle_beta   91.18232844
_cell_angle_gamma   89.80503804
_symmetry_Int_Tables_number   1
_chemical_formula_structural   H7PbC3SI4N3
_chemical_formula_sum   'H28 Pb4 C12 S4 I16 N12'
_cell_volume   1565.67540263
_cell_formula_units_Z   4
loop_
 _symmetry_equiv_pos_site_id
 _symmetry_equiv_pos_as_xyz
  1  'x, y, z'
loop_
 _atom_site_type_symbol
 _atom_site_label
 _atom_site_symmetry_multiplicity
 _atom_site_fract_x
 _atom_site_fract_y
 _atom_site_fract_z
 _atom_site_occupancy
  H  H0  1  0.25506576  0.19006786  0.83141046  1
  H  H1  1  0.31610046  0.13020048  0.70581284  1
  H  H2  1  0.17974708  0.13255711  0.71086552  1
  H  H3  1  0.31976694  0.32791251  0.69245492  1
  H  H4  1  0.17615955  0.32741275  0.68760926  1
  H  H5  1  0.25096946  0.12242701  0.26297415  1
  H  H6  1  0.26001652  0.30723084  0.16859061  1
  H  H7  1  0.19514051  0.74127284  0.83605087  1
  H  H8  1  0.13226318  0.68020503  0.71023147  1
  H  H9  1  0.13472681  0.81659577  0.71550047  1
  H  H10  1  0.33212615  0.67713632  0.69347124  1
  H  H11  1  0.33103447  0.81864745  0.69160303  1
  H  H12  1  0.11900226  0.74925625  0.25808849  1
  H  H13  1  0.30921622  0.74787482  0.17470503  1
  H  H14  1  0.80545903  0.26092745  0.16317514  1
  H  H15  1  0.86549894  0.18426142  0.28301786  1
  H  H16  1  0.86814700  0.32055947  0.29000403  1
  H  H17  1  0.66939798  0.18198226  0.30664381  1
  H  H18  1  0.66803537  0.32347776  0.30578465  1
  H  H19  1  0.87955157  0.24862925  0.74195485  1
  H  H20  1  0.68911684  0.24740126  0.82409560  1
  H  H21  1  0.74577965  0.81092660  0.16868916  1
  H  H22  1  0.81978790  0.86791383  0.29031981  1
  H  H23  1  0.68336645  0.86986690  0.29392345  1
  H  H24  1  0.82348041  0.67264120  0.31165831  1
  H  H25  1  0.67986999  0.67229518  0.30691901  1
  H  H26  1  0.74954106  0.87532649  0.73831990  1
  H  H27  1  0.74023384  0.69007576  0.83091927  1
  Pb  Pb28  1  0.00285766  0.00327338  0.99991615  1
  Pb  Pb29  1  0.00095868  0.50359589  0.00132876  1
  Pb  Pb30  1  0.50060844  0.00499762  0.99962296  1
  Pb  Pb31  1  0.50265983  0.50369953  0.99956989  1
  C  C32  1  0.24839839  0.28224728  0.65884471  1
  C  C33  1  0.25005101  0.26907473  0.51146333  1
  C  C34  1  0.25574287  0.28742314  0.27457558  1
  C  C35  1  0.28417645  0.74803300  0.66286154  1
  C  C36  1  0.26707002  0.74876089  0.51553955  1
  C  C37  1  0.28772177  0.74862300  0.27922072  1
  C  C38  1  0.71608355  0.25255759  0.33603020  1
  C  C39  1  0.73267424  0.25084000  0.48342925  1
  C  C40  1  0.71088869  0.24802435  0.71965513  1
  C  C41  1  0.75130260  0.71779316  0.34072462  1
  C  C42  1  0.74977211  0.73017849  0.48828252  1
  C  C43  1  0.74418404  0.71044655  0.72505174  1
  S  S44  1  0.25678962  0.37546733  0.39873865  1
  S  S45  1  0.37704278  0.74721533  0.40865546  1
  S  S46  1  0.62218990  0.25040944  0.58957230  1
  S  S47  1  0.74293768  0.62316004  0.60002532  1
  I  I48  1  0.25184195  0.98448667  0.08782307  1
  I  I49  1  0.25100742  0.53810568  0.06101536  1
  I  I50  1  0.75140657  0.01091474  0.91653276  1
  I  I51  1  0.75018614  0.45632263  0.94201232  1
  I  I52  1  0.02187788  0.25172435  0.94248174  1
  I  I53  1  0.97745110  0.75216824  0.05697540  1
  I  I54  1  0.44906351  0.25299959  0.97751099  1
  I  I55  1  0.54443177  0.75224668  0.02636410  1
  I  I56  1  0.04465446  0.98461964  0.68834852  1
  I  I57  1  0.95556642  0.01636071  0.31123217  1
  I  I58  1  0.03646317  0.52046119  0.68723296  1
  I  I59  1  0.96354617  0.48125717  0.31450514  1
  I  I60  1  0.45515687  0.99405607  0.68680508  1
  I  I61  1  0.54547733  0.00737717  0.31371628  1
  I  I62  1  0.45835908  0.50846064  0.68488675  1
  I  I63  1  0.54238420  0.49183788  0.31462574  1
  N  N64  1  0.24916252  0.17807452  0.72987883  1
  N  N65  1  0.24771437  0.17612199  0.45588996  1
  N  N66  1  0.25109636  0.18934424  0.32233254  1
  N  N67  1  0.18031262  0.74688100  0.73474866  1
  N  N68  1  0.17222799  0.74953760  0.45450119  1
  N  N69  1  0.18667577  0.74919533  0.32138966  1
  N  N70  1  0.82010089  0.25421755  0.26450033  1
  N  N71  1  0.82723990  0.24985897  0.54517839  1
  N  N72  1  0.81218021  0.24846614  0.67820125  1
  N  N73  1  0.75064563  0.82227616  0.27038507  1
  N  N74  1  0.75227686  0.82276499  0.54478339  1
  N  N75  1  0.74895877  0.80878218  0.67824076  1
