# generated using pymatgen
data_H7PbC3SI4N3
_symmetry_space_group_name_H-M   'P 1'
_cell_length_a   12.17425322
_cell_length_b   12.11412588
_cell_length_c   10.43724363
_cell_angle_alpha   87.24426154
_cell_angle_beta   86.39857957
_cell_angle_gamma   90.00300192
_symmetry_Int_Tables_number   1
_chemical_formula_structural   H7PbC3SI4N3
_chemical_formula_sum   'H28 Pb4 C12 S4 I16 N12'
_cell_volume   1534.46556673
_cell_formula_units_Z   4
loop_
 _symmetry_equiv_pos_site_id
 _symmetry_equiv_pos_as_xyz
  1  'x, y, z'
loop_
 _atom_site_type_symbol
 _atom_site_label
 _atom_site_symmetry_multiplicity
 _atom_site_fract_x
 _atom_site_fract_y
 _atom_site_fract_z
 _atom_site_occupancy
  H  H0  1  0.24879169  0.26546222  0.81763108  1
  H  H1  1  0.32269862  0.17637031  0.72573735  1
  H  H2  1  0.18558167  0.17137576  0.73121970  1
  H  H3  1  0.17998111  0.36483210  0.63732668  1
  H  H4  1  0.32613344  0.36338190  0.62681859  1
  H  H5  1  0.25043496  0.40226797  0.34810585  1
  H  H6  1  0.24832849  0.26324713  0.18418309  1
  H  H7  1  0.26450791  0.74738744  0.81486686  1
  H  H8  1  0.17156563  0.68308235  0.72805659  1
  H  H9  1  0.17708373  0.82200272  0.72536198  1
  H  H10  1  0.36254016  0.82489776  0.62423813  1
  H  H11  1  0.36330375  0.67763845  0.63203180  1
  H  H12  1  0.40146634  0.74750401  0.34396778  1
  H  H13  1  0.26297160  0.74673700  0.18169452  1
  H  H14  1  0.73465957  0.25250094  0.18518817  1
  H  H15  1  0.82235025  0.17804123  0.27441070  1
  H  H16  1  0.82783034  0.31692163  0.27154787  1
  H  H17  1  0.63639388  0.32258332  0.36808993  1
  H  H18  1  0.63683715  0.17532342  0.37581241  1
  H  H19  1  0.59766950  0.25262219  0.65561025  1
  H  H20  1  0.73595302  0.25272809  0.81843820  1
  H  H21  1  0.75160761  0.73483123  0.18251287  1
  H  H22  1  0.81488594  0.82878653  0.26890001  1
  H  H23  1  0.67772201  0.82392356  0.27445245  1
  H  H24  1  0.67404671  0.63698892  0.37334693  1
  H  H25  1  0.82019461  0.63524272  0.36276475  1
  H  H26  1  0.75037092  0.59799759  0.65211123  1
  H  H27  1  0.75267244  0.73699413  0.81597834  1
  Pb  Pb28  1  0.00184397  0.00012242  0.00015134  1
  Pb  Pb29  1  0.00164957  0.49817939  0.99944413  1
  Pb  Pb30  1  0.50070184  0.99869825  0.99942419  1
  Pb  Pb31  1  0.50181458  0.50080477  0.99929532  1
  C  C32  1  0.25238334  0.31098042  0.62212126  1
  C  C33  1  0.25173362  0.25807519  0.49538455  1
  C  C34  1  0.24963349  0.31417715  0.37352934  1
  C  C35  1  0.31046109  0.75091665  0.61901049  1
  C  C36  1  0.25772907  0.75065590  0.49302758  1
  C  C37  1  0.31368847  0.74780623  0.37040058  1
  C  C38  1  0.68907612  0.24917943  0.38104118  1
  C  C39  1  0.74175861  0.24927109  0.50706820  1
  C  C40  1  0.68546539  0.25210950  0.62952310  1
  C  C41  1  0.74792082  0.68923314  0.37803220  1
  C  C42  1  0.74870783  0.74213397  0.50478674  1
  C  C43  1  0.75102535  0.68607882  0.62666675  1
  S  S44  1  0.25120779  0.11070311  0.34261283  1
  S  S45  1  0.11104678  0.75048265  0.34266006  1
  S  S46  1  0.88802383  0.24896788  0.65798275  1
  S  S47  1  0.74939798  0.88958324  0.65750111  1
  I  I48  1  0.24929484  0.06601517  0.03656872  1
  I  I49  1  0.25165106  0.40915760  0.99284619  1
  I  I50  1  0.75289252  0.93580190  0.96295237  1
  I  I51  1  0.74994977  0.59113158  0.00672443  1
  I  I52  1  0.93082946  0.25108704  0.96661853  1
  I  I53  1  0.06479129  0.74811465  0.03515344  1
  I  I54  1  0.58786474  0.24940395  0.01940931  1
  I  I55  1  0.40793836  0.74991478  0.98255910  1
  I  I56  1  0.05718226  0.99480900  0.69710953  1
  I  I57  1  0.94359562  0.00567989  0.30266179  1
  I  I58  1  0.02247425  0.53576484  0.69386472  1
  I  I59  1  0.97770870  0.46298736  0.30517901  1
  I  I60  1  0.47609007  0.03852942  0.69520990  1
  I  I61  1  0.52391643  0.96087061  0.30365637  1
  I  I62  1  0.51884748  0.49471901  0.69189100  1
  I  I63  1  0.48184440  0.50613137  0.30645693  1
  N  N64  1  0.25186397  0.22620543  0.73051593  1
  N  N65  1  0.24906053  0.24145169  0.28190180  1
  N  N66  1  0.25305097  0.14824514  0.48810672  1
  N  N67  1  0.22563853  0.75050121  0.72829068  1
  N  N68  1  0.24136743  0.74773151  0.27966621  1
  N  N69  1  0.14828802  0.75278187  0.48751405  1
  N  N70  1  0.77371688  0.24948189  0.27160803  1
  N  N71  1  0.75753959  0.25190031  0.72056788  1
  N  N72  1  0.85114686  0.24691645  0.51294775  1
  N  N73  1  0.74854447  0.77404415  0.26964220  1
  N  N74  1  0.75172728  0.75884413  0.71826934  1
  N  N75  1  0.74731713  0.85196076  0.51204028  1
