# generated using pymatgen
data_H7PbC3SI4N3
_symmetry_space_group_name_H-M   'P 1'
_cell_length_a   12.18977391
_cell_length_b   12.21642254
_cell_length_c   10.53194814
_cell_angle_alpha   92.41521681
_cell_angle_beta   93.00480722
_cell_angle_gamma   91.21797719
_symmetry_Int_Tables_number   1
_chemical_formula_structural   H7PbC3SI4N3
_chemical_formula_sum   'H28 Pb4 C12 S4 I16 N12'
_cell_volume   1564.38915551
_cell_formula_units_Z   4
loop_
 _symmetry_equiv_pos_site_id
 _symmetry_equiv_pos_as_xyz
  1  'x, y, z'
loop_
 _atom_site_type_symbol
 _atom_site_label
 _atom_site_symmetry_multiplicity
 _atom_site_fract_x
 _atom_site_fract_y
 _atom_site_fract_z
 _atom_site_occupancy
  H  H0  1  0.22954770  0.17663430  0.80416704  1
  H  H1  1  0.15742651  0.12632657  0.67452031  1
  H  H2  1  0.14197635  0.25656721  0.72705180  1
  H  H3  1  0.35787654  0.17918207  0.64579303  1
  H  H4  1  0.31923012  0.31766806  0.67915492  1
  H  H5  1  0.19525391  0.41676361  0.48866724  1
  H  H6  1  0.22511736  0.12755745  0.22808575  1
  H  H7  1  0.20397429  0.77110682  0.80770054  1
  H  H8  1  0.14706394  0.83781141  0.68621563  1
  H  H9  1  0.28193624  0.85819724  0.72776841  1
  H  H10  1  0.18790933  0.64022285  0.63396798  1
  H  H11  1  0.33026190  0.67751595  0.66310333  1
  H  H12  1  0.42909731  0.78115892  0.46736080  1
  H  H13  1  0.11031618  0.81600116  0.25748414  1
  H  H14  1  0.82620004  0.27710284  0.19573193  1
  H  H15  1  0.87533753  0.34932554  0.32482859  1
  H  H16  1  0.74539053  0.36421106  0.26970102  1
  H  H17  1  0.82385347  0.14790713  0.35386523  1
  H  H18  1  0.68539566  0.18600904  0.31862954  1
  H  H19  1  0.58754506  0.31467694  0.50819948  1
  H  H20  1  0.87074879  0.26165611  0.77543744  1
  H  H21  1  0.73639223  0.78909368  0.19411825  1
  H  H22  1  0.66818314  0.85011545  0.30990674  1
  H  H23  1  0.64671571  0.71492837  0.27443767  1
  H  H24  1  0.86369203  0.80870000  0.37490938  1
  H  H25  1  0.82689986  0.66671769  0.34712519  1
  H  H26  1  0.72803477  0.56908277  0.54567189  1
  H  H27  1  0.67771506  0.88785979  0.74155029  1
  Pb  Pb28  1  0.98268432  0.99063542  0.97960859  1
  Pb  Pb29  1  0.00815822  0.50727233  0.97855958  1
  Pb  Pb30  1  0.49750793  0.00661527  0.00264917  1
  Pb  Pb31  1  0.49661872  0.50056808  0.02325590  1
  C  C32  1  0.29100551  0.23781358  0.63652339  1
  C  C33  1  0.25494525  0.24621884  0.49965473  1
  C  C34  1  0.21091398  0.33758415  0.44321501  1
  C  C35  1  0.24990403  0.70653497  0.62901752  1
  C  C36  1  0.25217981  0.74557930  0.49637874  1
  C  C37  1  0.34362413  0.77962513  0.43318941  1
  C  C38  1  0.76510294  0.21456717  0.36264767  1
  C  C39  1  0.75578153  0.24787390  0.49976455  1
  C  C40  1  0.66537610  0.29394425  0.55511734  1
  C  C41  1  0.79687091  0.74705998  0.37770964  1
  C  C42  1  0.75417441  0.74580924  0.50827308  1
  C  C43  1  0.72425218  0.65487920  0.57558375  1
  S  S44  1  0.17782040  0.31248473  0.28749173  1
  S  S45  1  0.30670015  0.82531513  0.28909791  1
  S  S46  1  0.68876258  0.31892742  0.71277278  1
  S  S47  1  0.67532347  0.69320710  0.71661645  1
  I  I48  1  0.24231499  0.05987341  0.00804035  1
  I  I49  1  0.24991758  0.40812376  0.97177257  1
  I  I50  1  0.73699417  0.90974290  0.98861115  1
  I  I51  1  0.75570386  0.56262120  0.02114415  1
  I  I52  1  0.93995183  0.24835596  0.99638965  1
  I  I53  1  0.08458226  0.75373722  0.00022236  1
  I  I54  1  0.58774214  0.25240869  0.03781499  1
  I  I55  1  0.43057776  0.74588813  0.97554961  1
  I  I56  1  0.00369205  0.98155699  0.66968201  1
  I  I57  1  0.98176335  1.00018053  0.27897085  1
  I  I58  1  0.99842400  0.49655340  0.67945772  1
  I  I59  1  0.01925119  0.51016412  0.29383749  1
  I  I60  1  0.45451131  0.98367504  0.69635855  1
  I  I61  1  0.52217175  0.99463468  0.30848418  1
  I  I62  1  0.49377059  0.48100838  0.71153928  1
  I  I63  1  0.53305266  0.53817054  0.32729325  1
  N  N64  1  0.19951216  0.19697268  0.71371791  1
  N  N65  1  0.22696129  0.18396687  0.30557998  1
  N  N66  1  0.26142826  0.15776863  0.41834461  1
  N  N67  1  0.21889429  0.79856179  0.71766071  1
  N  N68  1  0.17455660  0.79555668  0.31968087  1
  N  N69  1  0.15563373  0.75797929  0.42974255  1
  N  N70  1  0.80524352  0.30697196  0.28563175  1
  N  N71  1  0.81511573  0.26396186  0.69657394  1
  N  N72  1  0.84209249  0.23360217  0.58359376  1
  N  N73  1  0.70707377  0.77733035  0.28357521  1
  N  N74  1  0.69686567  0.82468692  0.67889514  1
  N  N75  1  0.73609667  0.84263681  0.56955477  1
