# generated using pymatgen
data_H22PbC16(I2N)2
_symmetry_space_group_name_H-M   'P 1'
_cell_length_a   12.40998624
_cell_length_b   12.40817195
_cell_length_c   19.41273729
_cell_angle_alpha   89.58517162
_cell_angle_beta   89.58546883
_cell_angle_gamma   89.94252419
_symmetry_Int_Tables_number   1
_chemical_formula_structural   H22PbC16(I2N)2
_chemical_formula_sum   'H88 Pb4 C64 I16 N8'
_cell_volume   2989.11714061
_cell_formula_units_Z   4
loop_
 _symmetry_equiv_pos_site_id
 _symmetry_equiv_pos_as_xyz
  1  'x, y, z'
loop_
 _atom_site_type_symbol
 _atom_site_label
 _atom_site_symmetry_multiplicity
 _atom_site_fract_x
 _atom_site_fract_y
 _atom_site_fract_z
 _atom_site_occupancy
  H  H0  1  0.27370580  0.15480434  0.88524331  1
  H  H1  1  0.30333883  0.28352119  0.89451901  1
  H  H2  1  0.17655419  0.24107204  0.90729228  1
  H  H3  1  0.18343507  0.33020155  0.79717210  1
  H  H4  1  0.16179073  0.18914773  0.78706820  1
  H  H5  1  0.37992878  0.30722539  0.77374809  1
  H  H6  1  0.36544308  0.16517901  0.77164324  1
  H  H7  1  0.23734383  0.08544788  0.67902222  1
  H  H8  1  0.20203829  0.09103512  0.55400493  1
  H  H9  1  0.17912176  0.41546779  0.46031331  1
  H  H10  1  0.14374039  0.41330157  0.33480863  1
  H  H11  1  0.13329979  0.32228158  0.22951966  1
  H  H12  1  0.12369996  0.17989212  0.23357335  1
  H  H13  1  0.33217089  0.30827711  0.20493770  1
  H  H14  1  0.32475918  0.16505412  0.21168517  1
  H  H15  1  0.20440873  0.29871526  0.11031294  1
  H  H16  1  0.31426151  0.22578572  0.09315619  1
  H  H17  1  0.19779715  0.16581310  0.11726005  1
  H  H18  1  0.26561097  0.08867984  0.32415666  1
  H  H19  1  0.30294200  0.09145276  0.44857377  1
  H  H20  1  0.32653667  0.41486287  0.54334356  1
  H  H21  1  0.36039417  0.40947686  0.66888780  1
  H  H22  1  0.15489198  0.72295688  0.88462211  1
  H  H23  1  0.28392193  0.69495092  0.89477818  1
  H  H24  1  0.23975221  0.82116209  0.90701520  1
  H  H25  1  0.33039870  0.81590804  0.79726714  1
  H  H26  1  0.18928096  0.83782311  0.78672746  1
  H  H27  1  0.30784172  0.61983124  0.77446245  1
  H  H28  1  0.16579872  0.63442192  0.77224426  1
  H  H29  1  0.08567027  0.76275510  0.67896461  1
  H  H30  1  0.09078374  0.79810674  0.55356979  1
  H  H31  1  0.41504745  0.82101392  0.45995171  1
  H  H32  1  0.41336367  0.85618035  0.33405302  1
  H  H33  1  0.32294399  0.86653026  0.22872046  1
  H  H34  1  0.18068187  0.87641032  0.23259323  1
  H  H35  1  0.30874883  0.66771585  0.20512041  1
  H  H36  1  0.16557886  0.67574075  0.21158050  1
  H  H37  1  0.30064401  0.79552236  0.10962538  1
  H  H38  1  0.22589480  0.68717664  0.09326713  1
  H  H39  1  0.16767521  0.80468331  0.11678004  1
  H  H40  1  0.08901734  0.73429340  0.32407481  1
  H  H41  1  0.09137849  0.69715303  0.44887731  1
  H  H42  1  0.41463051  0.67323532  0.54360207  1
  H  H43  1  0.40973261  0.63934385  0.66954053  1
  H  H44  1  0.84473072  0.22765307  0.11513499  1
  H  H45  1  0.71540109  0.20111720  0.10563779  1
  H  H46  1  0.76042880  0.32726207  0.09350143  1
  H  H47  1  0.67031536  0.31810606  0.20377909  1
  H  H48  1  0.81137825  0.33993794  0.21368403  1
  H  H49  1  0.69388855  0.12127578  0.22589518  1
  H  H50  1  0.83602841  0.13618454  0.22784246  1
  H  H51  1  0.91560279  0.26287261  0.32135369  1
  H  H52  1  0.90947476  0.29805999  0.44618583  1
  H  H53  1  0.58368402  0.31992054  0.53950815  1
  H  H54  1  0.58516038  0.35497092  0.66484338  1
  H  H55  1  0.67628410  0.36750318  0.77021628  1
  H  H56  1  0.81841821  0.37786385  0.76577094  1
  H  H57  1  0.69152506  0.16921667  0.79658017  1
  H  H58  1  0.83458851  0.17718837  0.78905101  1
  H  H59  1  0.70221629  0.30007685  0.89008839  1
  H  H60  1  0.77471586  0.18998027  0.90769569  1
  H  H61  1  0.83499566  0.30547019  0.88249690  1
  H  H62  1  0.91007201  0.23440889  0.67626706  1
  H  H63  1  0.90797692  0.19713548  0.55165340  1
  H  H64  1  0.58610726  0.17234497  0.45651171  1
  H  H65  1  0.59206502  0.13832067  0.33079537  1
  H  H66  1  0.77457709  0.84351067  0.11454086  1
  H  H67  1  0.79961800  0.71348989  0.10491064  1
  H  H68  1  0.67414767  0.76030514  0.09355865  1
  H  H69  1  0.68217655  0.67003512  0.20380075  1
  H  H70  1  0.66044346  0.81124703  0.21349591  1
  H  H71  1  0.87892912  0.69336414  0.22493697  1
  H  H72  1  0.86384949  0.83545465  0.22690425  1
  H  H73  1  0.73696571  0.91558362  0.32126014  1
  H  H74  1  0.70186352  0.90981412  0.44644122  1
  H  H75  1  0.67989716  0.58402406  0.53961149  1
  H  H76  1  0.64489584  0.58501981  0.66535492  1
  H  H77  1  0.63259166  0.67559843  0.77079979  1
  H  H78  1  0.62199590  0.81776223  0.76644576  1
  H  H79  1  0.83029441  0.69092012  0.79637699  1
  H  H80  1  0.82226256  0.83407262  0.78857858  1
  H  H81  1  0.69813215  0.70212682  0.89019061  1
  H  H82  1  0.80770739  0.77484542  0.90727543  1
  H  H83  1  0.69207354  0.83507834  0.88190505  1
  H  H84  1  0.76564340  0.90963947  0.67620332  1
  H  H85  1  0.80285423  0.90803468  0.55118797  1
  H  H86  1  0.82784731  0.58633517  0.45597753  1
  H  H87  1  0.86175696  0.59182809  0.32990468  1
  Pb  Pb88  1  0.00234205  0.99828859  0.99066899  1
  Pb  Pb89  1  0.00047619  0.49968297  0.00127216  1
  Pb  Pb90  1  0.50469516  0.99987594  0.00156951  1
  Pb  Pb91  1  0.49814952  0.49705608  0.00615095  1
  C  C92  1  0.22130269  0.25039080  0.80133127  1
  C  C93  1  0.32489171  0.24191098  0.75898421  1
  C  C94  1  0.30240409  0.24690823  0.68276728  1
  C  C95  1  0.25728539  0.15800657  0.64937632  1
  C  C96  1  0.23792610  0.16076636  0.57886448  1
  C  C97  1  0.26267500  0.25286413  0.53912254  1
  C  C98  1  0.24337971  0.25358273  0.46392896  1
  C  C99  1  0.19952203  0.34409120  0.43042167  1
  C  C100  1  0.17910549  0.34269308  0.35983384  1
  C  C101  1  0.20179998  0.25112192  0.32050914  1
  C  C102  1  0.17704911  0.24865702  0.24461545  1
  C  C103  1  0.27841025  0.23840121  0.20030210  1
  C  C104  1  0.24672712  0.16101465  0.35365153  1
  C  C105  1  0.26716859  0.16219420  0.42406134  1
  C  C106  1  0.30600834  0.34254533  0.57293699  1
  C  C107  1  0.32555369  0.33942976  0.64363493  1
  C  C108  1  0.25057911  0.77806848  0.80128504  1
  C  C109  1  0.24246552  0.67500853  0.75936032  1
  C  C110  1  0.24728632  0.69782061  0.68303062  1
  C  C111  1  0.15815495  0.74294986  0.64941083  1
  C  C112  1  0.16065479  0.76225052  0.57870198  1
  C  C113  1  0.25266284  0.73737726  0.53913994  1
  C  C114  1  0.25337552  0.75663094  0.46381235  1
  C  C115  1  0.34391288  0.80047866  0.43007855  1
  C  C116  1  0.34281740  0.82070024  0.35929779  1
  C  C117  1  0.25149839  0.79775920  0.32004927  1
  C  C118  1  0.24932858  0.82276207  0.24398943  1
  C  C119  1  0.23910286  0.72192751  0.20013817  1
  C  C120  1  0.16127739  0.75302502  0.35347538  1
  C  C121  1  0.16215509  0.73276928  0.42408837  1
  C  C122  1  0.34251805  0.69391542  0.57316241  1
  C  C123  1  0.33967231  0.67442998  0.64403367  1
  C  C124  1  0.75021200  0.28048925  0.19922906  1
  C  C125  1  0.75918368  0.17620724  0.24088771  1
  C  C126  1  0.75422993  0.19754067  0.31724134  1
  C  C127  1  0.84292662  0.24274287  0.35078397  1
  C  C128  1  0.83978085  0.26210515  0.42131195  1
  C  C129  1  0.74749691  0.23722056  0.46083979  1
  C  C130  1  0.74607044  0.25652355  0.53603328  1
  C  C131  1  0.65516679  0.29984942  0.56939434  1
  C  C132  1  0.65612887  0.32010453  0.64000120  1
  C  C133  1  0.74758315  0.29788238  0.67955023  1
  C  C134  1  0.74999992  0.32382142  0.75528452  1
  C  C135  1  0.76115443  0.22343935  0.80040429  1
  C  C136  1  0.83790093  0.25311572  0.64657043  1
  C  C137  1  0.83718390  0.23280205  0.57614009  1
  C  C138  1  0.65825328  0.19329587  0.42690201  1
  C  C139  1  0.66172048  0.17370134  0.35620613  1
  C  C140  1  0.71999702  0.74977842  0.19896181  1
  C  C141  1  0.82375148  0.75868025  0.24017383  1
  C  C142  1  0.80208217  0.75394063  0.31668600  1
  C  C143  1  0.75696069  0.84285936  0.35054933  1
  C  C144  1  0.73771914  0.83997532  0.42126564  1
  C  C145  1  0.76271068  0.74773496  0.46061115  1
  C  C146  1  0.74345489  0.74624730  0.53593775  1
  C  C147  1  0.70007845  0.65526069  0.56948486  1
  C  C148  1  0.67992424  0.65593114  0.64027093  1
  C  C149  1  0.70235521  0.74714724  0.67972398  1
  C  C150  1  0.67618703  0.74932570  0.75558882  1
  C  C151  1  0.77598849  0.76066716  0.80023522  1
  C  C152  1  0.74706446  0.83760504  0.64653679  1
  C  C153  1  0.76726445  0.83718156  0.57591468  1
  C  C154  1  0.80672449  0.65833428  0.42641126  1
  C  C155  1  0.82618866  0.66153655  0.35553565  1
  I  I156  1  0.25313409  0.96864511  0.99223398  1
  I  I157  1  0.24846885  0.54477264  0.00313464  1
  I  I158  1  0.75347003  0.04430969  0.00291646  1
  I  I159  1  0.74886755  0.46848302  0.00212519  1
  I  I160  1  0.03346696  0.24955945  0.00075321  1
  I  I161  1  0.95669521  0.75022434  0.99433743  1
  I  I162  1  0.45441999  0.24860682  -0.00032041  1
  I  I163  1  0.52971878  0.74908777  0.00639990  1
  I  I164  1  0.00435438  0.00113050  0.82772412  1
  I  I165  1  0.01558961  0.99815680  0.15625466  1
  I  I166  1  0.99379348  0.49294166  0.83781184  1
  I  I167  1  0.99665662  0.49859478  0.16636516  1
  I  I168  1  0.51644490  0.99452058  0.83815565  1
  I  I169  1  0.50317120  0.99915809  0.16663045  1
  I  I170  1  0.49912579  0.49951827  0.83799111  1
  I  I171  1  0.49535728  0.49544619  0.16726482  1
  N  N172  1  0.24495622  0.23174984  0.87629405  1
  N  N173  1  0.24711136  0.23151723  0.12577164  1
  N  N174  1  0.23145070  0.75292299  0.87621244  1
  N  N175  1  0.23262916  0.75414779  0.12537433  1
  N  N176  1  0.76848449  0.25794679  0.12411924  1
  N  N177  1  0.76885755  0.25633273  0.87471822  1
  N  N178  1  0.74351403  0.76761199  0.12363555  1
  N  N179  1  0.74168972  0.76885589  0.87453608  1
