# generated using pymatgen
data_H18PbC16S2(I2N)2
_symmetry_space_group_name_H-M   'P 1'
_cell_length_a   12.24871059
_cell_length_b   12.07014379
_cell_length_c   19.89188387
_cell_angle_alpha   86.63684269
_cell_angle_beta   86.88691568
_cell_angle_gamma   89.77677084
_symmetry_Int_Tables_number   1
_chemical_formula_structural   H18PbC16S2(I2N)2
_chemical_formula_sum   'H72 Pb4 C64 S8 I16 N8'
_cell_volume   2931.49158994
_cell_formula_units_Z   4
loop_
 _symmetry_equiv_pos_site_id
 _symmetry_equiv_pos_as_xyz
  1  'x, y, z'
loop_
 _atom_site_type_symbol
 _atom_site_label
 _atom_site_symmetry_multiplicity
 _atom_site_fract_x
 _atom_site_fract_y
 _atom_site_fract_z
 _atom_site_occupancy
  H  H0  1  0.31722698  0.22678173  0.91110486  1
  H  H1  1  0.38708538  0.31074729  0.85341465  1
  H  H2  1  0.36311178  0.17747176  0.83847815  1
  H  H3  1  0.16104803  0.22097084  0.84970189  1
  H  H4  1  0.20059529  0.36214528  0.85275697  1
  H  H5  1  0.30826086  0.45550228  0.75056844  1
  H  H6  1  0.31964957  0.47584895  0.62652475  1
  H  H7  1  0.22779989  0.51858444  0.52610684  1
  H  H8  1  0.19261824  0.33965355  0.28777884  1
  H  H9  1  0.20103901  0.11258656  0.15869691  1
  H  H10  1  0.15819924  0.25133083  0.17034175  1
  H  H11  1  0.35250974  0.30829213  0.15678276  1
  H  H12  1  0.31230061  0.24076222  0.09080280  1
  H  H13  1  0.38799760  0.17368545  0.14744838  1
  H  H14  1  0.29620697  0.99814884  0.26081169  1
  H  H15  1  0.25154239  0.15987561  0.50903228  1
  H  H16  1  0.16454950  0.15682544  0.61816112  1
  H  H17  1  0.15953813  0.13399463  0.74263639  1
  H  H18  1  0.22771363  0.68854588  0.91366336  1
  H  H19  1  0.29408586  0.61670731  0.85518183  1
  H  H20  1  0.16431527  0.65742327  0.84452151  1
  H  H21  1  0.22668277  0.85430584  0.84381078  1
  H  H22  1  0.36215366  0.80224499  0.85003972  1
  H  H23  1  0.44358868  0.68661093  0.75459520  1
  H  H24  1  0.46115592  0.67287916  0.63128248  1
  H  H25  1  0.51042954  0.76892103  0.52390190  1
  H  H26  1  0.33823999  0.79534612  0.28410705  1
  H  H27  1  0.11655327  0.80013744  0.15380562  1
  H  H28  1  0.25468443  0.83595282  0.16400095  1
  H  H29  1  0.29790971  0.63226143  0.16323187  1
  H  H30  1  0.24664014  0.68720647  0.09292670  1
  H  H31  1  0.16560800  0.60962568  0.14823333  1
  H  H32  1  -0.00207166  0.70554214  0.26137589  1
  H  H33  1  0.15593166  0.75958132  0.50929874  1
  H  H34  1  0.16746798  0.86779475  0.61053045  1
  H  H35  1  0.14802341  0.87774962  0.73466674  1
  H  H36  1  0.77495426  0.19138317  0.09027556  1
  H  H37  1  0.69275773  0.11908361  0.14757565  1
  H  H38  1  0.82233303  0.14822077  0.16407392  1
  H  H39  1  0.77278039  0.35161810  0.15011312  1
  H  H40  1  0.63529778  0.30616223  0.14626165  1
  H  H41  1  0.54727092  0.19222625  0.24830028  1
  H  H42  1  0.52640054  0.17927475  0.37246321  1
  H  H43  1  0.47955726  0.28578374  0.47073620  1
  H  H44  1  0.65090500  0.31435264  0.71247794  1
  H  H45  1  0.87675695  0.30811660  0.84111653  1
  H  H46  1  0.73885885  0.34930528  0.83048643  1
  H  H47  1  0.68719622  0.15035170  0.84418282  1
  H  H48  1  0.75242763  0.19344008  0.91015694  1
  H  H49  1  0.82051596  0.11796144  0.85408276  1
  H  H50  1  0.98816521  0.21267543  0.74024998  1
  H  H51  1  0.83122477  0.25212110  0.49249068  1
  H  H52  1  0.83324490  0.34983363  0.38255244  1
  H  H53  1  0.85500667  0.36051905  0.25790384  1
  H  H54  1  0.80258726  0.78071632  0.08509807  1
  H  H55  1  0.87637003  0.70486956  0.13914849  1
  H  H56  1  0.84124380  0.83593661  0.15522839  1
  H  H57  1  0.64415107  0.77579600  0.15655200  1
  H  H58  1  0.69507109  0.63804075  0.15111540  1
  H  H59  1  0.81333530  0.55831243  0.24574182  1
  H  H60  1  0.82775999  0.54153267  0.36935848  1
  H  H61  1  0.71055053  0.48916249  0.47374795  1
  H  H62  1  0.68774688  0.66193281  0.71752637  1
  H  H63  1  0.69682608  0.88501258  0.84624317  1
  H  H64  1  0.65936619  0.74519212  0.83648020  1
  H  H65  1  0.85975470  0.69905400  0.83718327  1
  H  H66  1  0.80638410  0.75031770  0.90771955  1
  H  H67  1  0.88330638  0.83256465  0.85278197  1
  H  H68  1  0.80116528  1.00027559  0.73802513  1
  H  H69  1  0.74858370  0.84545175  0.49251155  1
  H  H70  1  0.64097687  0.84240898  0.38806161  1
  H  H71  1  0.62776988  0.85986390  0.26431848  1
  Pb  Pb72  1  0.00902886  0.00819777  0.00643148  1
  Pb  Pb73  1  -0.00239274  0.49681494  0.99486456  1
  Pb  Pb74  1  0.50135242  0.99003670  0.99559778  1
  Pb  Pb75  1  0.50547715  0.50403790  0.00229853  1
  C  C76  1  0.22241210  0.28298825  0.83096484  1
  C  C77  1  0.23132569  0.29404335  0.75528441  1
  C  C78  1  0.27626335  0.38991197  0.72162040  1
  C  C79  1  0.28219759  0.40155670  0.65160558  1
  C  C80  1  0.24110175  0.31880300  0.61283227  1
  C  C81  1  0.24141257  0.33471070  0.53893569  1
  C  C82  1  0.23541144  0.43788335  0.50480970  1
  C  C83  1  0.24371823  0.28506360  0.42616795  1
  C  C84  1  0.24898922  0.22245181  0.36624538  1
  C  C85  1  0.22402536  0.25712074  0.30128211  1
  C  C86  1  0.24045882  0.17343108  0.25432457  1
  C  C87  1  0.22280332  0.19028403  0.18057733  1
  C  C88  1  0.27693442  0.07517720  0.28440244  1
  C  C89  1  0.24579869  0.24762038  0.49322935  1
  C  C90  1  0.19815585  0.22186296  0.64684162  1
  C  C91  1  0.19436032  0.20937186  0.71700411  1
  C  C92  1  0.28315372  0.78853152  0.82836526  1
  C  C93  1  0.29415239  0.78267023  0.75310113  1
  C  C94  1  0.38267206  0.72634326  0.72307486  1
  C  C95  1  0.39272967  0.71891359  0.65353156  1
  C  C96  1  0.31553710  0.76936456  0.61159642  1
  C  C97  1  0.32906244  0.76414711  0.53782929  1
  C  C98  1  0.43038104  0.76324236  0.50328538  1
  C  C99  1  0.27831962  0.75586284  0.42576223  1
  C  C100  1  0.21757079  0.74931749  0.36570675  1
  C  C101  1  0.25486352  0.76907826  0.29903983  1
  C  C102  1  0.17328106  0.75406520  0.25219315  1
  C  C103  1  0.19173926  0.77269737  0.17734622  1
  C  C104  1  0.07425504  0.72268180  0.28403333  1
  C  C105  1  0.24224475  0.76027139  0.49277940  1
  C  C106  1  0.22723911  0.82617392  0.64202993  1
  C  C107  1  0.21652394  0.83241892  0.71183305  1
  C  C108  1  0.71359148  0.28754564  0.16889187  1
  C  C109  1  0.70186654  0.27890244  0.24452042  1
  C  C110  1  0.60977317  0.22784303  0.27766296  1
  C  C111  1  0.59785466  0.22082528  0.34763851  1
  C  C112  1  0.67706082  0.26598971  0.38677763  1
  C  C113  1  0.66012933  0.26582500  0.46055938  1
  C  C114  1  0.55801134  0.27538218  0.49331757  1
  C  C115  1  0.70626698  0.26406470  0.57386957  1
  C  C116  1  0.76678221  0.25790678  0.63435926  1
  C  C117  1  0.73228073  0.28279245  0.69920485  1
  C  C118  1  0.81500269  0.26672918  0.74630274  1
  C  C119  1  0.79984673  0.28480623  0.81995964  1
  C  C120  1  0.91198257  0.23057812  0.71650279  1
  C  C121  1  0.74467631  0.25999962  0.50728798  1
  C  C122  1  0.77062990  0.31422790  0.35330637  1
  C  C123  1  0.78282189  0.32063876  0.28317549  1
  C  C124  1  0.70970798  0.71885241  0.17156231  1
  C  C125  1  0.71909066  0.71000647  0.24662638  1
  C  C126  1  0.77527363  0.62067841  0.27697302  1
  C  C127  1  0.78304335  0.61096472  0.34653414  1
  C  C128  1  0.73345354  0.68923746  0.38806414  1
  C  C129  1  0.73289586  0.67221842  0.46198228  1
  C  C130  1  0.72221138  0.56853423  0.49543713  1
  C  C131  1  0.73479512  0.71868615  0.57518358  1
  C  C132  1  0.74372874  0.77938221  0.63527765  1
  C  C133  1  0.72047654  0.74396471  0.70199518  1
  C  C134  1  0.74102010  0.82599568  0.74823133  1
  C  C135  1  0.72249859  0.80818957  0.82309068  1
  C  C136  1  0.77921388  0.92380807  0.71589939  1
  C  C137  1  0.73920461  0.75778977  0.50819327  1
  C  C138  1  0.68033914  0.78051293  0.35707657  1
  C  C139  1  0.67271912  0.79048833  0.28734218  1
  S  S140  1  0.23647320  0.42906842  0.41940043  1
  S  S141  1  0.29245968  0.08492385  0.36876343  1
  S  S142  1  0.42003905  0.75614312  0.41841779  1
  S  S143  1  0.08069555  0.71111087  0.36978300  1
  S  S144  1  0.56470462  0.27568300  0.57884343  1
  S  S145  1  0.90259172  0.21499215  0.63221445  1
  S  S146  1  0.72148042  0.57501804  0.58105890  1
  S  S147  1  0.79136056  0.91528146  0.63035303  1
  I  I148  1  0.25394890  0.07799057  0.00462728  1
  I  I149  1  0.24940635  0.43739054  0.99470185  1
  I  I150  1  0.75471178  0.94548113  0.99512005  1
  I  I151  1  0.74920970  0.58932383  0.00138022  1
  I  I152  1  0.91242541  0.25345948  0.99435043  1
  I  I153  1  0.05595687  0.75241185  0.00570281  1
  I  I154  1  0.55871742  0.24724341  0.00370494  1
  I  I155  1  0.40458364  0.74847154  0.00005116  1
  I  I156  1  0.00717481  0.00328755  0.84320035  1
  I  I157  1  0.97068451  0.99861131  0.17030035  1
  I  I158  1  0.99925165  0.53798077  0.83029632  1
  I  I159  1  0.00097206  0.48756042  0.15756847  1
  I  I160  1  0.51263635  0.03296489  0.83123715  1
  I  I161  1  0.50668152  0.99206126  0.15849066  1
  I  I162  1  0.50923171  0.49245069  0.83994013  1
  I  I163  1  0.45713870  0.49044801  0.16713431  1
  N  N164  1  0.32891005  0.24760452  0.85978054  1
  N  N165  1  0.32532529  0.23179302  0.14186942  1
  N  N166  1  0.23947092  0.68122744  0.86209345  1
  N  N167  1  0.22805907  0.66912146  0.14395464  1
  N  N168  1  0.75295522  0.17988135  0.14149127  1
  N  N169  1  0.76166758  0.17995561  0.85915343  1
  N  N170  1  0.81399944  0.76269063  0.13595971  1
  N  N171  1  0.82430239  0.76990825  0.85675707  1
