# generated using pymatgen
data_H20PbC14S(I2N)2
_symmetry_space_group_name_H-M   'P 1'
_cell_length_a   12.28966238
_cell_length_b   12.32143958
_cell_length_c   18.90129730
_cell_angle_alpha   90.69156972
_cell_angle_beta   90.66896581
_cell_angle_gamma   89.29229395
_symmetry_Int_Tables_number   1
_chemical_formula_structural   H20PbC14S(I2N)2
_chemical_formula_sum   'H80 Pb4 C56 S4 I16 N8'
_cell_volume   2861.53716343
_cell_formula_units_Z   4
loop_
 _symmetry_equiv_pos_site_id
 _symmetry_equiv_pos_as_xyz
  1  'x, y, z'
loop_
 _atom_site_type_symbol
 _atom_site_label
 _atom_site_symmetry_multiplicity
 _atom_site_fract_x
 _atom_site_fract_y
 _atom_site_fract_z
 _atom_site_occupancy
  H  H0  1  0.29993699  0.23444080  0.90277090  1
  H  H1  1  0.21348429  0.13912992  0.87395068  1
  H  H2  1  0.17149765  0.26733521  0.87898501  1
  H  H3  1  0.29387362  0.32149535  0.78719161  1
  H  H4  1  0.34535167  0.18562357  0.78252963  1
  H  H5  1  0.15851563  0.11907834  0.74865020  1
  H  H6  1  0.10669736  0.25360582  0.75486412  1
  H  H7  1  0.15337670  0.39066779  0.66525057  1
  H  H8  1  0.20212649  0.42244472  0.54027871  1
  H  H9  1  0.36676107  0.44439454  0.46187444  1
  H  H10  1  0.39493938  0.20128704  0.22917099  1
  H  H11  1  0.29085722  0.11507377  0.25730966  1
  H  H12  1  0.14968681  0.25654940  0.22546286  1
  H  H13  1  0.25389719  0.34629100  0.19943691  1
  H  H14  1  0.17341472  0.24408006  0.10029921  1
  H  H15  1  0.21454413  0.12809211  0.13555371  1
  H  H16  1  0.30675006  0.21759773  0.10755493  1
  H  H17  1  0.24185281  0.12978864  0.39230110  1
  H  H18  1  0.31516223  0.09095364  0.52104040  1
  H  H19  1  0.26606350  0.05936170  0.64550583  1
  H  H20  1  0.23285763  0.69479604  0.90155239  1
  H  H21  1  0.13717428  0.78357783  0.87363133  1
  H  H22  1  0.26416335  0.82294607  0.88288124  1
  H  H23  1  0.32352749  0.70308715  0.78720016  1
  H  H24  1  0.18796386  0.65429610  0.77940111  1
  H  H25  1  0.12093458  0.84336515  0.75049428  1
  H  H26  1  0.25551354  0.89189199  0.75826418  1
  H  H27  1  0.39189244  0.84861472  0.66720679  1
  H  H28  1  0.42430799  0.80184164  0.54125066  1
  H  H29  1  0.45937724  0.65380618  0.46006286  1
  H  H30  1  0.21242675  0.60779187  0.22820520  1
  H  H31  1  0.12320659  0.71148701  0.25751217  1
  H  H32  1  0.26003162  0.85282116  0.22531698  1
  H  H33  1  0.35192727  0.74862730  0.19645979  1
  H  H34  1  0.24656471  0.82668988  0.09966761  1
  H  H35  1  0.13100785  0.79191893  0.13675142  1
  H  H36  1  0.21852467  0.69508769  0.10648019  1
  H  H37  1  0.13043348  0.74748632  0.39275187  1
  H  H38  1  0.09597763  0.68488276  0.52088256  1
  H  H39  1  0.06326846  0.73410057  0.64577197  1
  H  H40  1  0.76523294  0.20626081  0.09690028  1
  H  H41  1  0.86059484  0.29218009  0.12643583  1
  H  H42  1  0.73229116  0.33392553  0.12085032  1
  H  H43  1  0.67709645  0.21012950  0.21195540  1
  H  H44  1  0.81333756  0.15856437  0.21653874  1
  H  H45  1  0.87985694  0.34399135  0.25211437  1
  H  H46  1  0.74521089  0.39598766  0.24628893  1
  H  H47  1  0.60768615  0.34799713  0.33514821  1
  H  H48  1  0.57469035  0.29813050  0.45933118  1
  H  H49  1  0.55337786  0.12946915  0.53580290  1
  H  H50  1  0.79224628  0.10617003  0.77206958  1
  H  H51  1  0.88001919  0.20739872  0.74189336  1
  H  H52  1  0.74120676  0.35179068  0.77289108  1
  H  H53  1  0.65028863  0.25059863  0.80157626  1
  H  H54  1  0.75475796  0.33017395  0.89928810  1
  H  H55  1  0.87090100  0.29436752  0.86185652  1
  H  H56  1  0.78595643  0.19811387  0.89126718  1
  H  H57  1  0.86515153  0.25774824  0.60905584  1
  H  H58  1  0.90661364  0.18388656  0.47913656  1
  H  H59  1  0.93920206  0.23405210  0.35472902  1
  H  H60  1  0.79846417  0.76734231  0.09801016  1
  H  H61  1  0.70940231  0.86169509  0.12777951  1
  H  H62  1  0.67090777  0.73474776  0.11762243  1
  H  H63  1  0.79271767  0.67446648  0.21178403  1
  H  H64  1  0.84346143  0.80942775  0.21938261  1
  H  H65  1  0.65560364  0.87770200  0.25060159  1
  H  H66  1  0.60557892  0.74399572  0.24386220  1
  H  H67  1  0.65506057  0.60694496  0.33375086  1
  H  H68  1  0.70379851  0.57511576  0.45949425  1
  H  H69  1  0.86753974  0.55031739  0.53888196  1
  H  H70  1  0.89056566  0.79118414  0.77431814  1
  H  H71  1  0.78680723  0.87865002  0.74295287  1
  H  H72  1  0.64529731  0.74064135  0.77253584  1
  H  H73  1  0.74899955  0.64954940  0.80239716  1
  H  H74  1  0.66770503  0.75235039  0.89921785  1
  H  H75  1  0.69902652  0.86869677  0.86246193  1
  H  H76  1  0.79893182  0.78463171  0.89301370  1
  H  H77  1  0.74301420  0.86699396  0.60869525  1
  H  H78  1  0.81366006  0.90523848  0.47986001  1
  H  H79  1  0.76377415  0.93684808  0.35453728  1
  Pb  Pb80  1  -0.00170622  0.99490111  0.00867889  1
  Pb  Pb81  1  0.00611997  0.49866478  0.99815217  1
  Pb  Pb82  1  0.50425902  1.00037332  0.99631112  1
  Pb  Pb83  1  0.50071833  0.49505010  0.99567526  1
  C  C84  1  0.27197130  0.23563652  0.79110356  1
  C  C85  1  0.17910878  0.20469776  0.74064466  1
  C  C86  1  0.20741856  0.22320142  0.66444626  1
  C  C87  1  0.19005586  0.32512507  0.63377723  1
  C  C88  1  0.21764156  0.34311273  0.56367400  1
  C  C89  1  0.26357662  0.25956019  0.52172761  1
  C  C90  1  0.29552004  0.28072951  0.44831306  1
  C  C91  1  0.34417978  0.37600508  0.42825173  1
  C  C92  1  0.31859488  0.24949326  0.32657278  1
  C  C93  1  0.31402546  0.20081268  0.25372165  1
  C  C94  1  0.23308049  0.26061921  0.20565827  1
  C  C95  1  0.28115698  0.20836777  0.38908391  1
  C  C96  1  0.27952994  0.15707993  0.55238187  1
  C  C97  1  0.25231644  0.13943881  0.62269214  1
  C  C98  1  0.23720721  0.72638930  0.79067758  1
  C  C99  1  0.20682641  0.82085605  0.74237291  1
  C  C100  1  0.22572824  0.79332789  0.66560127  1
  C  C101  1  0.32730533  0.81169165  0.63522125  1
  C  C102  1  0.34565946  0.78485223  0.56460995  1
  C  C103  1  0.26364213  0.73803457  0.52198864  1
  C  C104  1  0.28739344  0.70851947  0.44798650  1
  C  C105  1  0.38880036  0.67129587  0.42684278  1
  C  C106  1  0.26036390  0.68821608  0.32526563  1
  C  C107  1  0.20991059  0.68941386  0.25274223  1
  C  C108  1  0.26584153  0.76954240  0.20438196  1
  C  C109  1  0.21402704  0.71742531  0.38880576  1
  C  C110  1  0.16142666  0.72100223  0.55241363  1
  C  C111  1  0.14314090  0.74836351  0.62318494  1
  C  C112  1  0.76321692  0.23192948  0.20846999  1
  C  C113  1  0.79402369  0.32334940  0.25989863  1
  C  C114  1  0.77537327  0.29349314  0.33582245  1
  C  C115  1  0.67319597  0.31089156  0.36644519  1
  C  C116  1  0.65453202  0.28268211  0.43632569  1
  C  C117  1  0.73784606  0.23612400  0.47826571  1
  C  C118  1  0.71564784  0.20322327  0.55141281  1
  C  C119  1  0.62053662  0.15294167  0.57036396  1
  C  C120  1  0.74448835  0.17999904  0.67353902  1
  C  C121  1  0.79366640  0.18599295  0.74638278  1
  C  C122  1  0.73634484  0.26947707  0.79401736  1
  C  C123  1  0.78648526  0.21798921  0.61140697  1
  C  C124  1  0.84076244  0.22014368  0.44777516  1
  C  C125  1  0.85890342  0.24788086  0.37757131  1
  C  C126  1  0.77047903  0.76088568  0.20896716  1
  C  C127  1  0.67769449  0.79193876  0.25862509  1
  C  C128  1  0.70734625  0.77350970  0.33507631  1
  C  C129  1  0.69116415  0.67200597  0.36566432  1
  C  C130  1  0.71874018  0.65410759  0.43626363  1
  C  C131  1  0.76382148  0.73728814  0.47871440  1
  C  C132  1  0.79580830  0.71503587  0.55261272  1
  C  C133  1  0.84393278  0.61809430  0.57292085  1
  C  C134  1  0.81603965  0.74303092  0.67526776  1
  C  C135  1  0.81002339  0.79248145  0.74798108  1
  C  C136  1  0.72806137  0.73544610  0.79468012  1
  C  C137  1  0.78090354  0.78666001  0.61212028  1
  C  C138  1  0.77863036  0.83944805  0.44816788  1
  C  C139  1  0.75113262  0.85699349  0.37736023  1
  S  S140  1  0.37207337  0.37715493  0.33986855  1
  S  S141  1  0.39489334  0.64919710  0.33765831  1
  S  S142  1  0.61750744  0.12413572  0.65855681  1
  S  S143  1  0.86936199  0.61367918  0.66197329  1
  I  I144  1  0.25152289  0.96234074  0.99721216  1
  I  I145  1  0.25125963  0.56613693  0.00299968  1
  I  I146  1  0.75069769  0.06423019  0.99809734  1
  I  I147  1  0.75254138  0.46476837  0.99805191  1
  I  I148  1  0.03405743  0.24691462  0.00351566  1
  I  I149  1  0.93749157  0.74866437  0.99607908  1
  I  I150  1  0.43381932  0.24903015  0.00215123  1
  I  I151  1  0.53754611  0.74786833  0.00269859  1
  I  I152  1  0.00096282  0.99681530  0.84311052  1
  I  I153  1  0.02626103  0.99180487  0.18053092  1
  I  I154  1  0.01168867  0.45951316  0.82718220  1
  I  I155  1  0.00385850  0.49737489  0.16371874  1
  I  I156  1  0.50679311  0.97949708  0.82562944  1
  I  I157  1  0.51009894  0.00374675  0.16232110  1
  I  I158  1  0.49649954  0.49861384  0.82941990  1
  I  I159  1  0.52829572  0.49577249  0.16787575  1
  N  N160  1  0.23745287  0.21816201  0.86610209  1
  N  N161  1  0.23276318  0.20974999  0.13334209  1
  N  N162  1  0.21683675  0.75824922  0.86640020  1
  N  N163  1  0.21231543  0.76984580  0.13280524  1
  N  N164  1  0.78127169  0.26780938  0.13382425  1
  N  N165  1  0.78985389  0.27194712  0.86558190  1
  N  N166  1  0.73603361  0.78221461  0.13379206  1
  N  N167  1  0.72446758  0.78826325  0.86640542  1
