# generated using pymatgen
data_H19PbC17SI4N3
_symmetry_space_group_name_H-M   'P 1'
_cell_length_a   12.07521758
_cell_length_b   12.19341774
_cell_length_c   21.30524991
_cell_angle_alpha   90.65931874
_cell_angle_beta   89.30235928
_cell_angle_gamma   90.06401445
_symmetry_Int_Tables_number   1
_chemical_formula_structural   H19PbC17SI4N3
_chemical_formula_sum   'H76 Pb4 C68 S4 I16 N12'
_cell_volume   3136.50434859
_cell_formula_units_Z   4
loop_
 _symmetry_equiv_pos_site_id
 _symmetry_equiv_pos_as_xyz
  1  'x, y, z'
loop_
 _atom_site_type_symbol
 _atom_site_label
 _atom_site_symmetry_multiplicity
 _atom_site_fract_x
 _atom_site_fract_y
 _atom_site_fract_z
 _atom_site_occupancy
  H  H0  1  0.16442296  0.15336832  0.83706266  1
  H  H1  1  0.18064719  0.28796802  0.85184146  1
  H  H2  1  0.23000759  0.19323482  0.90193402  1
  H  H3  1  0.38182731  0.26962400  0.84268574  1
  H  H4  1  0.36549679  0.12612879  0.83062158  1
  H  H5  1  0.32583278  0.40100856  0.76084056  1
  H  H6  1  0.29866097  0.43467934  0.64892320  1
  H  H7  1  0.24862997  0.46472233  0.55577894  1
  H  H8  1  0.20525220  0.09051079  0.37751721  1
  H  H9  1  0.18562281  0.06893873  0.26302023  1
  H  H10  1  0.12789536  0.16574188  0.16149445  1
  H  H11  1  0.15341946  0.30893449  0.15376964  1
  H  H12  1  0.33486296  0.14160865  0.16102240  1
  H  H13  1  0.34504386  0.27403000  0.14140663  1
  H  H14  1  0.27885787  0.18583410  0.09484836  1
  H  H15  1  0.20018721  0.42003011  0.24189829  1
  H  H16  1  0.22020970  0.44202502  0.35759896  1
  H  H17  1  0.27961935  0.08477890  0.61416975  1
  H  H18  1  0.30918921  0.05252025  0.72676792  1
  H  H19  1  0.16339266  0.83804504  0.83793630  1
  H  H20  1  0.29109155  0.80393517  0.86460445  1
  H  H21  1  0.17795142  0.76488179  0.90357510  1
  H  H22  1  0.26773096  0.61591043  0.84298787  1
  H  H23  1  0.12379827  0.63522529  0.83165806  1
  H  H24  1  0.40341910  0.67143687  0.75944556  1
  H  H25  1  0.43770159  0.70007031  0.64714098  1
  H  H26  1  0.46781578  0.75144033  0.55325815  1
  H  H27  1  0.08958623  0.79477797  0.37920726  1
  H  H28  1  0.06943830  0.80990135  0.26465933  1
  H  H29  1  0.16826213  0.86015633  0.16119271  1
  H  H30  1  0.31339051  0.83938246  0.15350281  1
  H  H31  1  0.14883782  0.65558499  0.16104396  1
  H  H32  1  0.28547696  0.64706181  0.14386879  1
  H  H33  1  0.19700984  0.71031249  0.09531479  1
  H  H34  1  0.42401338  0.79286304  0.24053148  1
  H  H35  1  0.44477205  0.77890997  0.35620814  1
  H  H36  1  0.08447301  0.72173071  0.61719143  1
  H  H37  1  0.05166506  0.69275099  0.73013937  1
  H  H38  1  0.84569916  0.34321773  0.16208915  1
  H  H39  1  0.71205475  0.31818798  0.14356446  1
  H  H40  1  0.81443344  0.27274727  0.09703217  1
  H  H41  1  0.73026225  0.12544089  0.15606955  1
  H  H42  1  0.87551615  0.14087398  0.16570611  1
  H  H43  1  0.59947044  0.17809197  0.24038738  1
  H  H44  1  0.56559759  0.20443852  0.35315795  1
  H  H45  1  0.53334091  0.24777488  0.44639527  1
  H  H46  1  0.90648477  0.29698471  0.62199001  1
  H  H47  1  0.92596209  0.32410858  0.73633264  1
  H  H48  1  0.81989920  0.39653597  0.83778803  1
  H  H49  1  0.67971055  0.35274794  0.84796152  1
  H  H50  1  0.86973604  0.19768200  0.83375633  1
  H  H51  1  0.73818440  0.16866792  0.85526740  1
  H  H52  1  0.82184755  0.24284299  0.90273084  1
  H  H53  1  0.57128193  0.31107452  0.75995612  1
  H  H54  1  0.55107729  0.28444762  0.64469923  1
  H  H55  1  0.91894776  0.22413637  0.38330558  1
  H  H56  1  0.95151315  0.19751904  0.26996626  1
  H  H57  1  0.65046688  0.84069918  0.15944314  1
  H  H58  1  0.67017382  0.70533792  0.14863084  1
  H  H59  1  0.72099906  0.79684349  0.09663647  1
  H  H60  1  0.87195068  0.73097598  0.15635412  1
  H  H61  1  0.84909687  0.87383073  0.16640591  1
  H  H62  1  0.81614504  0.60043919  0.23894487  1
  H  H63  1  0.79482826  0.56763769  0.35145454  1
  H  H64  1  0.75082656  0.53571952  0.44414099  1
  H  H65  1  0.70469175  0.90494963  0.62447084  1
  H  H66  1  0.67555321  0.92577901  0.73875983  1
  H  H67  1  0.59815436  0.82352495  0.83790770  1
  H  H68  1  0.63970524  0.68453837  0.84832590  1
  H  H69  1  0.80076336  0.87017187  0.83733612  1
  H  H70  1  0.82372350  0.74279715  0.86234832  1
  H  H71  1  0.74756322  0.82913391  0.90575301  1
  H  H72  1  0.68501530  0.57442692  0.75906229  1
  H  H73  1  0.71514831  0.55311276  0.64385193  1
  H  H74  1  0.77605755  0.91763934  0.38583693  1
  H  H75  1  0.79935068  0.94924647  0.27259651  1
  Pb  Pb76  1  0.01555920  0.99131850  0.98392403  1
  Pb  Pb77  1  0.00738779  0.48142474  0.99901274  1
  Pb  Pb78  1  0.51621146  1.00742040  0.99857641  1
  Pb  Pb79  1  0.50669320  0.50988467  0.00277717  1
  C  C80  1  0.32930524  0.20644708  0.82088974  1
  C  C81  1  0.31672431  0.22463566  0.75186556  1
  C  C82  1  0.31411555  0.33174966  0.72868848  1
  C  C83  1  0.29890586  0.35037438  0.66528190  1
  C  C84  1  0.28449839  0.26229188  0.62258384  1
  C  C85  1  0.26438502  0.28548565  0.55665814  1
  C  C86  1  0.24790024  0.38727008  0.52988024  1
  C  C87  1  0.23058820  0.28871998  0.44260935  1
  C  C88  1  0.21608910  0.26857097  0.37540140  1
  C  C89  1  0.20567736  0.16336316  0.34813415  1
  C  C90  1  0.19502427  0.15110555  0.28329527  1
  C  C91  1  0.19500227  0.24342677  0.24433831  1
  C  C92  1  0.18405652  0.23292733  0.17451886  1
  C  C93  1  0.20313854  0.34808703  0.27179048  1
  C  C94  1  0.21341415  0.36083867  0.33619479  1
  C  C95  1  0.28922581  0.15484846  0.64599134  1
  C  C96  1  0.30540703  0.13650194  0.70966014  1
  C  C97  1  0.20583796  0.67014753  0.82209622  1
  C  C98  1  0.22543731  0.68451312  0.75311482  1
  C  C99  1  0.33362598  0.68543124  0.72840270  1
  C  C100  1  0.35258428  0.70074529  0.66468983  1
  C  C101  1  0.26371671  0.71612733  0.62315990  1
  C  C102  1  0.28676206  0.73623591  0.55683677  1
  C  C103  1  0.38947203  0.75249196  0.52853030  1
  C  C104  1  0.28955377  0.77015510  0.44272934  1
  C  C105  1  0.26941925  0.78352296  0.37564197  1
  C  C106  1  0.16359135  0.79317833  0.34919725  1
  C  C107  1  0.15214163  0.80111307  0.28425465  1
  C  C108  1  0.24580412  0.79875196  0.24440700  1
  C  C109  1  0.23688981  0.80659006  0.17441739  1
  C  C110  1  0.35104123  0.79215864  0.27112664  1
  C  C111  1  0.36303704  0.78488730  0.33552887  1
  C  C112  1  0.15516278  0.71200074  0.64809011  1
  C  C113  1  0.13654811  0.69634242  0.71201402  1
  C  C114  1  0.79464206  0.17715493  0.17740378  1
  C  C115  1  0.77734845  0.18980517  0.24683765  1
  C  C116  1  0.66932943  0.19074319  0.27169757  1
  C  C117  1  0.65061174  0.20484937  0.33555914  1
  C  C118  1  0.73942502  0.21922100  0.37737979  1
  C  C119  1  0.71494217  0.23828076  0.44386649  1
  C  C120  1  0.61109667  0.25073065  0.47165500  1
  C  C121  1  0.70811667  0.27123641  0.55843843  1
  C  C122  1  0.72673111  0.28772060  0.62549827  1
  C  C123  1  0.83241356  0.29887559  0.65192725  1
  C  C124  1  0.84353392  0.31380038  0.71649149  1
  C  C125  1  0.74958521  0.31744325  0.75604376  1
  C  C126  1  0.75969239  0.33241892  0.82582306  1
  C  C127  1  0.64445492  0.30683026  0.72956025  1
  C  C128  1  0.63278995  0.29250505  0.66530385  1
  C  C129  1  0.84800475  0.21518578  0.35235312  1
  C  C130  1  0.86653604  0.20063973  0.28803954  1
  C  C131  1  0.81629428  0.79247630  0.17783601  1
  C  C132  1  0.80529459  0.77662337  0.24734666  1
  C  C133  1  0.80510583  0.66991358  0.27111059  1
  C  C134  1  0.79362038  0.65174242  0.33490005  1
  C  C135  1  0.78063782  0.73984703  0.37789209  1
  C  C136  1  0.76281097  0.71547879  0.44423902  1
  C  C137  1  0.74929221  0.61259617  0.47057212  1
  C  C138  1  0.73035894  0.70848922  0.55884009  1
  C  C139  1  0.71342834  0.72696313  0.62621687  1
  C  C140  1  0.70215503  0.83195451  0.65370771  1
  C  C141  1  0.68613343  0.84384563  0.71827984  1
  C  C142  1  0.68113299  0.75132730  0.75702363  1
  C  C143  1  0.66247117  0.76270530  0.82663307  1
  C  C144  1  0.69161476  0.64676484  0.72955317  1
  C  C145  1  0.70742890  0.63438511  0.66517780  1
  C  C146  1  0.78413861  0.84717262  0.35402370  1
  C  C147  1  0.79655243  0.86518785  0.28971625  1
  S  S148  1  0.25559771  0.18658411  0.49771522  1
  S  S149  1  0.18659319  0.74546606  0.49931688  1
  S  S150  1  0.81340768  0.25106268  0.50220704  1
  S  S151  1  0.75165184  0.81270266  0.50402778  1
  I  I152  1  0.26219924  0.07668349  0.99248416  1
  I  I153  1  0.25390875  0.41818119  0.02230698  1
  I  I154  1  0.76320944  0.92997719  0.00808154  1
  I  I155  1  0.75756506  0.58933436  0.98807780  1
  I  I156  1  0.92876202  0.23506732  0.00236282  1
  I  I157  1  0.06892117  0.73725339  0.99728312  1
  I  I158  1  0.58199414  0.26231296  0.02522669  1
  I  I159  1  0.42173535  0.76599457  0.97857112  1
  I  I160  1  0.00929809  0.99241163  0.82246753  1
  I  I161  1  0.02208155  0.99330811  0.12765000  1
  I  I162  1  0.04097178  0.43177486  0.85121480  1
  I  I163  1  0.98857732  0.50115456  0.15410366  1
  I  I164  1  0.57851811  0.04825474  0.85278884  1
  I  I165  1  0.50279463  0.99636435  0.15321421  1
  I  I166  1  0.48267272  0.49277318  0.85578414  1
  I  I167  1  0.49385382  0.55147135  0.15708990  1
  N  N168  1  0.21941333  0.21129927  0.85457524  1
  N  N169  1  0.22954457  0.38862389  0.46731756  1
  N  N170  1  0.29265236  0.20727599  0.14173807  1
  N  N171  1  0.21095026  0.77705640  0.85824056  1
  N  N172  1  0.39055614  0.77109072  0.46601076  1
  N  N173  1  0.21614816  0.69772661  0.14222131  1
  N  N174  1  0.79060801  0.28525232  0.14398026  1
  N  N175  1  0.60779182  0.26838997  0.53446299  1
  N  N176  1  0.80021462  0.22924464  0.85601159  1
  N  N177  1  0.70758995  0.78173036  0.14421861  1
  N  N178  1  0.73177670  0.60920285  0.53338356  1
  N  N179  1  0.76505982  0.80356140  0.85952345  1
