# generated using pymatgen
data_H20PbC18I4N2O
_symmetry_space_group_name_H-M   'P 1'
_cell_length_a   12.89913548
_cell_length_b   12.94924008
_cell_length_c   20.43949959
_cell_angle_alpha   90.32143998
_cell_angle_beta   90.16902327
_cell_angle_gamma   90.16462149
_symmetry_Int_Tables_number   1
_chemical_formula_structural   H20PbC18I4N2O
_chemical_formula_sum   'H80 Pb4 C72 I16 N8 O4'
_cell_volume   3414.00857970
_cell_formula_units_Z   4
loop_
 _symmetry_equiv_pos_site_id
 _symmetry_equiv_pos_as_xyz
  1  'x, y, z'
loop_
 _atom_site_type_symbol
 _atom_site_label
 _atom_site_symmetry_multiplicity
 _atom_site_fract_x
 _atom_site_fract_y
 _atom_site_fract_z
 _atom_site_occupancy
  H  H0  1  0.33921430  0.39183173  0.83743586  1
  H  H1  1  0.25195597  0.40245759  0.89803261  1
  H  H2  1  0.28405428  0.28597497  0.87020750  1
  H  H3  1  0.16815298  0.45262548  0.80236247  1
  H  H4  1  0.11544880  0.33562885  0.83111193  1
  H  H5  1  0.24684957  0.46327120  0.69463627  1
  H  H6  1  0.26375515  0.38455003  0.58455030  1
  H  H7  1  0.22993578  0.01396838  0.56324818  1
  H  H8  1  0.26737742  0.01534273  0.43238113  1
  H  H9  1  0.23898151  0.38733845  0.41630461  1
  H  H10  1  0.25325622  0.46673862  0.30684439  1
  H  H11  1  0.32449934  0.45467865  0.19705801  1
  H  H12  1  0.37307857  0.33746742  0.16567072  1
  H  H13  1  0.23515858  0.40003318  0.10242969  1
  H  H14  1  0.15040992  0.40030244  0.16494325  1
  H  H15  1  0.19622882  0.28927676  0.13318174  1
  H  H16  1  0.34119467  0.17136780  0.22527437  1
  H  H17  1  0.32828676  0.09278493  0.33332521  1
  H  H18  1  0.16686712  0.09043998  0.66323522  1
  H  H19  1  0.14732649  0.16912461  0.77182734  1
  H  H20  1  0.38851694  0.66220180  0.83551049  1
  H  H21  1  0.40420631  0.74773864  0.89658390  1
  H  H22  1  0.28478368  0.71845963  0.87047820  1
  H  H23  1  0.45236542  0.83177530  0.80162455  1
  H  H24  1  0.33630708  0.88592248  0.83152878  1
  H  H25  1  0.46256908  0.75398430  0.69457528  1
  H  H26  1  0.38411079  0.73627274  0.58435856  1
  H  H27  1  0.01236504  0.77005885  0.56325491  1
  H  H28  1  0.01400391  0.73244919  0.43221916  1
  H  H29  1  0.38765677  0.76132990  0.41649784  1
  H  H30  1  0.46817605  0.74601606  0.30710815  1
  H  H31  1  0.45636732  0.67304856  0.19732211  1
  H  H32  1  0.33826784  0.62566567  0.16552381  1
  H  H33  1  0.40178234  0.76311485  0.10265017  1
  H  H34  1  0.40471310  0.84710520  0.16585738  1
  H  H35  1  0.29223483  0.80242769  0.13497354  1
  H  H36  1  0.17179723  0.65749315  0.22500037  1
  H  H37  1  0.09210021  0.67139968  0.33301241  1
  H  H38  1  0.08899391  0.83363396  0.66303419  1
  H  H39  1  0.16744544  0.85383191  0.77183582  1
  H  H40  1  0.59963666  0.15089958  0.16412513  1
  H  H41  1  0.60033368  0.23474262  0.10138684  1
  H  H42  1  0.71121985  0.19696675  0.13322731  1
  H  H43  1  0.54429571  0.32386031  0.19565389  1
  H  H44  1  0.66188767  0.37330458  0.16516285  1
  H  H45  1  0.53193003  0.25394550  0.30565973  1
  H  H46  1  0.61170977  0.23953556  0.41541212  1
  H  H47  1  0.98532538  0.26751009  0.43310679  1
  H  H48  1  0.98701212  0.22999848  0.56385812  1
  H  H49  1  0.61517831  0.26418227  0.58415002  1
  H  H50  1  0.53671674  0.24652863  0.69396308  1
  H  H51  1  0.54754836  0.16610781  0.80095939  1
  H  H52  1  0.66531591  0.11504109  0.83039045  1
  H  H53  1  0.59843293  0.25045439  0.89709583  1
  H  H54  1  0.60724368  0.33720734  0.83664613  1
  H  H55  1  0.71405223  0.28491620  0.86948967  1
  H  H56  1  0.83197549  0.14726559  0.77162734  1
  H  H57  1  0.91040323  0.16720523  0.66328986  1
  H  H58  1  0.90778333  0.32876565  0.33408104  1
  H  H59  1  0.82881129  0.34190676  0.22567505  1
  H  H60  1  0.84776784  0.59627859  0.16506699  1
  H  H61  1  0.76392752  0.59873600  0.10183369  1
  H  H62  1  0.80334828  0.70809838  0.13472759  1
  H  H63  1  0.67317529  0.54376382  0.19627378  1
  H  H64  1  0.62547831  0.66097002  0.16511558  1
  H  H65  1  0.74549647  0.53248187  0.30607456  1
  H  H66  1  0.76065109  0.61296207  0.41581076  1
  H  H67  1  0.73278407  0.98492748  0.43314890  1
  H  H68  1  0.77023848  0.98698606  0.56417662  1
  H  H69  1  0.73565702  0.61649285  0.58380468  1
  H  H70  1  0.75428451  0.53867972  0.69362364  1
  H  H71  1  0.83434736  0.54924027  0.79967114  1
  H  H72  1  0.88828178  0.66517889  0.83029286  1
  H  H73  1  0.75120389  0.59654239  0.89579778  1
  H  H74  1  0.66423763  0.60977933  0.83547774  1
  H  H75  1  0.71879732  0.71397302  0.87043656  1
  H  H76  1  0.85408953  0.83356500  0.77190032  1
  H  H77  1  0.83332070  0.91132177  0.66349584  1
  H  H78  1  0.67180245  0.90700059  0.33363607  1
  H  H79  1  0.65800591  0.82738649  0.22524632  1
  Pb  Pb80  1  0.98614952  0.03200371  0.00812975  1
  Pb  Pb81  1  0.01714699  0.51799134  0.02611730  1
  Pb  Pb82  1  0.47526442  0.02122737  0.02696985  1
  Pb  Pb83  1  0.50738428  0.50214777  0.96618078  1
  C  C84  1  0.18283587  0.36965445  0.80679548  1
  C  C85  1  0.20120340  0.32076616  0.74148784  1
  C  C86  1  0.23146357  0.38089664  0.68789010  1
  C  C87  1  0.24057020  0.33713429  0.62590399  1
  C  C88  1  0.22006401  0.23112680  0.61613107  1
  C  C89  1  0.23358963  0.18297187  0.55263142  1
  C  C90  1  0.23870692  0.08126509  0.53236702  1
  C  C91  1  0.25927113  0.08200074  0.46429265  1
  C  C92  1  0.26520229  0.18413349  0.44557638  1
  C  C93  1  0.27855215  0.23344244  0.38270084  1
  C  C94  1  0.25990587  0.33983932  0.37422394  1
  C  C95  1  0.26759064  0.38418288  0.31257658  1
  C  C96  1  0.29392266  0.32383396  0.25792584  1
  C  C97  1  0.30803987  0.37199843  0.19225152  1
  C  C98  1  0.31579164  0.21877650  0.26656841  1
  C  C99  1  0.30867623  0.17411789  0.32793907  1
  C  C100  1  0.18705065  0.17166408  0.66988759  1
  C  C101  1  0.17732116  0.21594046  0.73159365  1
  C  C102  1  0.36892768  0.81836379  0.80659304  1
  C  C103  1  0.31948165  0.80008097  0.74135938  1
  C  C104  1  0.37999739  0.76931474  0.68776841  1
  C  C105  1  0.33641785  0.75974949  0.62573867  1
  C  C106  1  0.23020739  0.78029064  0.61602042  1
  C  C107  1  0.18202320  0.76653979  0.55252537  1
  C  C108  1  0.07996862  0.76130710  0.53229710  1
  C  C109  1  0.08085279  0.74064898  0.46413790  1
  C  C110  1  0.18343506  0.73480182  0.44539825  1
  C  C111  1  0.23326613  0.72129962  0.38256895  1
  C  C112  1  0.34023074  0.73997178  0.37432307  1
  C  C113  1  0.38519791  0.73171995  0.31275348  1
  C  C114  1  0.32488268  0.70483676  0.25803524  1
  C  C115  1  0.37367424  0.69017853  0.19245421  1
  C  C116  1  0.21920063  0.68317370  0.26641218  1
  C  C117  1  0.17390635  0.69084469  0.32770910  1
  C  C118  1  0.17036811  0.81360958  0.66977011  1
  C  C119  1  0.21446757  0.82374847  0.73152639  1
  C  C120  1  0.62737827  0.30825551  0.19145891  1
  C  C121  1  0.67552141  0.29470934  0.25747516  1
  C  C122  1  0.61487427  0.26836140  0.31177625  1
  C  C123  1  0.65943160  0.26058131  0.37362284  1
  C  C124  1  0.76635934  0.27912976  0.38264888  1
  C  C125  1  0.81592929  0.26557288  0.44568296  1
  C  C126  1  0.91848981  0.25948822  0.46475857  1
  C  C127  1  0.91935047  0.23886468  0.53278364  1
  C  C128  1  0.81728992  0.23386349  0.55266637  1
  C  C129  1  0.76913738  0.22024218  0.61596925  1
  C  C130  1  0.66291435  0.24074881  0.62551466  1
  C  C131  1  0.61927377  0.23119138  0.68731393  1
  C  C132  1  0.67975623  0.20051652  0.74090989  1
  C  C133  1  0.63075804  0.18166146  0.80588871  1
  C  C134  1  0.78484865  0.17703837  0.73130680  1
  C  C135  1  0.82897800  0.18712439  0.66977956  1
  C  C136  1  0.82599278  0.30931914  0.32825237  1
  C  C137  1  0.78111922  0.31655557  0.26668574  1
  C  C138  1  0.69027063  0.62625471  0.19179866  1
  C  C139  1  0.70474037  0.67501769  0.25761862  1
  C  C140  1  0.73132431  0.61510536  0.31206913  1
  C  C141  1  0.73951332  0.66002693  0.37383981  1
  C  C142  1  0.72110546  0.76653940  0.38255486  1
  C  C143  1  0.73463661  0.81625830  0.44561226  1
  C  C144  1  0.74075018  0.91846936  0.46479619  1
  C  C145  1  0.76133437  0.91954725  0.53293766  1
  C  C146  1  0.76625166  0.81793527  0.55271940  1
  C  C147  1  0.77997962  0.77014887  0.61598201  1
  C  C148  1  0.75939933  0.66426250  0.62530132  1
  C  C149  1  0.76951346  0.62102269  0.68707817  1
  C  C150  1  0.80083129  0.68155314  0.74079568  1
  C  C151  1  0.82036251  0.63211526  0.80548963  1
  C  C152  1  0.82406037  0.78637705  0.73142984  1
  C  C153  1  0.81346309  0.83011306  0.66992303  1
  C  C154  1  0.69098198  0.82552460  0.32796872  1
  C  C155  1  0.68334087  0.78028259  0.26646055  1
  I  I156  1  0.26690936  0.90953913  0.01228918  1
  I  I157  1  0.25010321  0.56203827  0.99066152  1
  I  I158  1  0.74857571  0.08200822  0.01567078  1
  I  I159  1  0.73167002  0.43155131  0.98166828  1
  I  I160  1  0.08755396  0.25280485  0.01375192  1
  I  I161  1  0.91729033  0.73189878  0.01441819  1
  I  I162  1  0.43017306  0.25231836  0.99184309  1
  I  I163  1  0.56440533  0.73134498  0.97881024  1
  I  I164  1  0.00208491  0.00198090  0.83678476  1
  I  I165  1  0.00484323  0.00065193  0.15489567  1
  I  I166  1  0.98363309  0.47705540  0.88551171  1
  I  I167  1  0.99953572  0.49974487  0.20146802  1
  I  I168  1  0.51782493  0.98957522  0.88698392  1
  I  I169  1  0.50016486  0.00046809  0.20196633  1
  I  I170  1  0.49862082  0.49879291  0.79231650  1
  I  I171  1  0.49761453  0.49936234  0.10862189  1
  N  N172  1  0.27057110  0.36084698  0.85580172  1
  N  N173  1  0.21704280  0.36393819  0.14609806  1
  N  N174  1  0.35961706  0.73075571  0.85493914  1
  N  N175  1  0.36701108  0.78095099  0.14688331  1
  N  N176  1  0.63613579  0.21736160  0.14541349  1
  N  N177  1  0.63904863  0.26927819  0.85482169  1
  N  N178  1  0.78153270  0.63353704  0.14625133  1
  N  N179  1  0.73305425  0.63979418  0.85435283  1
  O  O180  1  0.24956404  0.24642355  0.49958665  1
  O  O181  1  0.24583744  0.75054571  0.49943602  1
  O  O182  1  0.75348976  0.24995987  0.49941976  1
  O  O183  1  0.75015586  0.75421719  0.49934914  1
