# generated using pymatgen
data_H20PbC14S(I2N)2
_symmetry_space_group_name_H-M   'P 1'
_cell_length_a   12.39880855
_cell_length_b   12.40882598
_cell_length_c   18.88943406
_cell_angle_alpha   90.38294068
_cell_angle_beta   90.35276965
_cell_angle_gamma   89.58144551
_symmetry_Int_Tables_number   1
_chemical_formula_structural   H20PbC14S(I2N)2
_chemical_formula_sum   'H80 Pb4 C56 S4 I16 N8'
_cell_volume   2906.03073900
_cell_formula_units_Z   4
loop_
 _symmetry_equiv_pos_site_id
 _symmetry_equiv_pos_as_xyz
  1  'x, y, z'
loop_
 _atom_site_type_symbol
 _atom_site_label
 _atom_site_symmetry_multiplicity
 _atom_site_fract_x
 _atom_site_fract_y
 _atom_site_fract_z
 _atom_site_occupancy
  H  H0  1  0.33245747  0.26660725  0.88429950  1
  H  H1  1  0.20270494  0.24411028  0.90283291  1
  H  H2  1  0.28366647  0.14381880  0.87539533  1
  H  H3  1  0.16009093  0.20128824  0.78139217  1
  H  H4  1  0.21713409  0.33276336  0.78863934  1
  H  H5  1  0.34463788  0.12524764  0.75287095  1
  H  H6  1  0.39907857  0.25647362  0.75775057  1
  H  H7  1  0.34918452  0.39337729  0.66576490  1
  H  H8  1  0.30076865  0.42216424  0.53968786  1
  H  H9  1  0.14041860  0.43966033  0.45227093  1
  H  H10  1  0.10596651  0.42325786  0.31385004  1
  H  H11  1  0.10408599  0.26593177  0.21630258  1
  H  H12  1  0.16366679  0.14071388  0.23805910  1
  H  H13  1  0.28645321  0.34827143  0.20034611  1
  H  H14  1  0.34952470  0.22505064  0.22617742  1
  H  H15  1  0.33831027  0.24280338  0.09788558  1
  H  H16  1  0.20323226  0.24770121  0.10061659  1
  H  H17  1  0.26923939  0.13706327  0.12570118  1
  H  H18  1  0.19071732  0.09394908  0.52441446  1
  H  H19  1  0.24053313  0.06535513  0.64989113  1
  H  H20  1  0.26741373  0.66508775  0.88283901  1
  H  H21  1  0.24471279  0.79506534  0.90354964  1
  H  H22  1  0.14410420  0.71598905  0.87637085  1
  H  H23  1  0.19950876  0.83917869  0.78304413  1
  H  H24  1  0.33162138  0.78156297  0.78877571  1
  H  H25  1  0.12457842  0.65601911  0.75204450  1
  H  H26  1  0.25620452  0.60026704  0.75654430  1
  H  H27  1  0.39395720  0.65014045  0.66532579  1
  H  H28  1  0.42319460  0.69857134  0.54002382  1
  H  H29  1  0.43945398  0.85877210  0.45326177  1
  H  H30  1  0.42214605  0.89409122  0.31531125  1
  H  H31  1  0.26503920  0.89614080  0.21786094  1
  H  H32  1  0.14004511  0.83748650  0.23924341  1
  H  H33  1  0.34832416  0.71328934  0.20018595  1
  H  H34  1  0.22548762  0.65137405  0.22567727  1
  H  H35  1  0.24238911  0.66264167  0.09747338  1
  H  H36  1  0.24609238  0.79770992  0.10149117  1
  H  H37  1  0.13619926  0.73182582  0.12610793  1
  H  H38  1  0.09381832  0.81033229  0.52472863  1
  H  H39  1  0.06468185  0.76049867  0.64974625  1
  H  H40  1  0.73320074  0.17157300  0.11582163  1
  H  H41  1  0.75651476  0.30137831  0.09738761  1
  H  H42  1  0.85656166  0.21954612  0.12405059  1
  H  H43  1  0.80031295  0.34187531  0.21913460  1
  H  H44  1  0.66864931  0.28560847  0.21215603  1
  H  H45  1  0.87616733  0.15674668  0.24642927  1
  H  H46  1  0.74451994  0.10282155  0.24119360  1
  H  H47  1  0.60824050  0.14952115  0.33375947  1
  H  H48  1  0.57903430  0.19728167  0.45999851  1
  H  H49  1  0.55690154  0.35231544  0.54786903  1
  H  H50  1  0.57278769  0.38657674  0.68633719  1
  H  H51  1  0.73321350  0.39736093  0.78271056  1
  H  H52  1  0.85836454  0.33749701  0.76103007  1
  H  H53  1  0.65091777  0.21587501  0.80033718  1
  H  H54  1  0.77377543  0.15205863  0.77384012  1
  H  H55  1  0.75762343  0.16516592  0.90204117  1
  H  H56  1  0.75338921  0.29999717  0.89920080  1
  H  H57  1  0.86345451  0.23327370  0.87327867  1
  H  H58  1  0.90647829  0.31025615  0.47526388  1
  H  H59  1  0.93592590  0.26055010  0.35020988  1
  H  H60  1  0.83086505  0.73255129  0.11747965  1
  H  H61  1  0.70075778  0.75673765  0.09698378  1
  H  H62  1  0.78111878  0.85643462  0.12411629  1
  H  H63  1  0.65857771  0.80140465  0.21793896  1
  H  H64  1  0.71608548  0.66940719  0.21203583  1
  H  H65  1  0.84244908  0.87643270  0.24760518  1
  H  H66  1  0.89808625  0.74471254  0.24307689  1
  H  H67  1  0.85024543  0.60797512  0.33461711  1
  H  H68  1  0.80156417  0.57876772  0.46025577  1
  H  H69  1  0.64204204  0.56112889  0.54678269  1
  H  H70  1  0.60641262  0.57873730  0.68468066  1
  H  H71  1  0.60191950  0.73563057  0.78168824  1
  H  H72  1  0.66102668  0.86041840  0.76081707  1
  H  H73  1  0.78441812  0.65195612  0.79996549  1
  H  H74  1  0.84704365  0.77461731  0.77478583  1
  H  H75  1  0.83421129  0.75753589  0.90264808  1
  H  H76  1  0.69920550  0.75342407  0.89873870  1
  H  H77  1  0.76434463  0.86356499  0.87436173  1
  H  H78  1  0.68940634  0.90767091  0.47532316  1
  H  H79  1  0.73919375  0.93673026  0.35045784  1
  Pb  Pb80  1  0.00309769  0.00519759  0.99098278  1
  Pb  Pb81  1  0.99134242  0.50005707  0.00341896  1
  Pb  Pb82  1  0.49797513  -0.00119766  0.00410486  1
  Pb  Pb83  1  0.49766662  0.50454999  0.00363607  1
  C  C84  1  0.23448412  0.24612263  0.79226471  1
  C  C85  1  0.32608964  0.21081607  0.74355083  1
  C  C86  1  0.29750210  0.22775898  0.66679148  1
  C  C87  1  0.31333777  0.32795267  0.63480817  1
  C  C88  1  0.28598359  0.34426503  0.56405042  1
  C  C89  1  0.24140423  0.26034865  0.52296772  1
  C  C90  1  0.21110445  0.27923211  0.44893277  1
  C  C91  1  0.16331396  0.37011980  0.42011682  1
  C  C92  1  0.14430024  0.36123447  0.34619757  1
  C  C93  1  0.17809857  0.26383988  0.31817941  1
  C  C94  1  0.17474547  0.22849549  0.24223521  1
  C  C95  1  0.27656188  0.26058626  0.20254189  1
  C  C96  1  0.22613400  0.15970326  0.55509730  1
  C  C97  1  0.25362464  0.14397813  0.62591692  1
  C  C98  1  0.24514219  0.76445907  0.79269731  1
  C  C99  1  0.21018453  0.67365695  0.74295869  1
  C  C100  1  0.22747501  0.70241529  0.66652144  1
  C  C101  1  0.32815629  0.68613515  0.63462780  1
  C  C102  1  0.34480199  0.71359714  0.56418239  1
  C  C103  1  0.26075738  0.75866299  0.52324614  1
  C  C104  1  0.27964670  0.78872407  0.44948016  1
  C  C105  1  0.37001616  0.83621510  0.42101071  1
  C  C106  1  0.36071110  0.85559927  0.34731818  1
  C  C107  1  0.26366734  0.82220402  0.31905891  1
  C  C108  1  0.22798409  0.82588026  0.24324038  1
  C  C109  1  0.26051468  0.72398077  0.20258100  1
  C  C110  1  0.15969881  0.77455334  0.55531615  1
  C  C111  1  0.14364789  0.74701275  0.62583582  1
  C  C112  1  0.75521851  0.26776895  0.20801094  1
  C  C113  1  0.79056640  0.17534378  0.25595529  1
  C  C114  1  0.77362028  0.20269512  0.33290859  1
  C  C115  1  0.67336952  0.18581182  0.36477113  1
  C  C116  1  0.65672121  0.21298644  0.43552850  1
  C  C117  1  0.74004108  0.25853212  0.47666055  1
  C  C118  1  0.72033844  0.28820482  0.55065608  1
  C  C119  1  0.62756770  0.33203749  0.57974246  1
  C  C120  1  0.63596575  0.35085103  0.65364609  1
  C  C121  1  0.73480320  0.32124260  0.68139436  1
  C  C122  1  0.77051817  0.32635556  0.75715043  1
  C  C123  1  0.73868063  0.22524453  0.79746596  1
  C  C124  1  0.84078268  0.27456877  0.44462220  1
  C  C125  1  0.85705701  0.24703423  0.37385303  1
  C  C126  1  0.73321273  0.75578609  0.20790462  1
  C  C127  1  0.82487082  0.79093239  0.25694858  1
  C  C128  1  0.79706829  0.77391229  0.33354473  1
  C  C129  1  0.81365919  0.67338845  0.36537194  1
  C  C130  1  0.78616489  0.65677922  0.43580630  1
  C  C131  1  0.74084320  0.74071376  0.47670473  1
  C  C132  1  0.71070226  0.72160954  0.55041986  1
  C  C133  1  0.66359535  0.63106789  0.57881650  1
  C  C134  1  0.64415037  0.64030245  0.65251784  1
  C  C135  1  0.67706268  0.73733629  0.68084063  1
  C  C136  1  0.67255016  0.77258112  0.75665045  1
  C  C137  1  0.77405103  0.73973111  0.79756891  1
  C  C138  1  0.72501901  0.84169867  0.44473825  1
  C  C139  1  0.75256696  0.85776315  0.37423805  1
  S  S140  1  0.23282752  0.18294828  0.38349237  1
  S  S141  1  0.18352269  0.76738824  0.38387922  1
  S  S142  1  0.81752627  0.27000259  0.61592411  1
  S  S143  1  0.73181401  0.81764195  0.61611464  1
  I  I144  1  0.25194285  0.94212920  0.00090732  1
  I  I145  1  0.24652507  0.52600333  0.00064510  1
  I  I146  1  0.75133734  0.02789421  0.00217274  1
  I  I147  1  0.74623423  0.43617462  0.99843713  1
  I  I148  1  0.05688902  0.25184124  0.00212764  1
  I  I149  1  0.97529816  0.75191552  0.99873085  1
  I  I150  1  0.47032777  0.24975460  0.99696577  1
  I  I151  1  0.56371588  0.74828174  0.99957531  1
  I  I152  1  0.98753616  0.00307123  0.82201600  1
  I  I153  1  -0.00010366  0.00115722  0.15751531  1
  I  I154  1  0.99928567  0.49991518  0.83796806  1
  I  I155  1  0.99114626  0.52374137  0.17435903  1
  I  I156  1  0.49647171  0.99766562  0.83837863  1
  I  I157  1  0.50619628  0.01504303  0.17505255  1
  I  I158  1  0.47592695  0.50033237  0.82872017  1
  I  I159  1  0.50157260  0.50060567  0.16820657  1
  N  N160  1  0.26469118  0.22420646  0.86808982  1
  N  N161  1  0.27136981  0.22011901  0.12755791  1
  N  N162  1  0.22446456  0.73351337  0.86825059  1
  N  N163  1  0.21947104  0.72972737  0.12785258  1
  N  N164  1  0.77629678  0.23862177  0.13193883  1
  N  N165  1  0.78030880  0.23132988  0.87210478  1
  N  N166  1  0.76319247  0.77628128  0.13221895  1
  N  N167  1  0.76745263  0.78045767  0.87232889  1
