# generated using pymatgen
data_H20PbC14S(I2N)2
_symmetry_space_group_name_H-M   'P 1'
_cell_length_a   12.23370609
_cell_length_b   12.26313720
_cell_length_c   19.25853105
_cell_angle_alpha   89.02324810
_cell_angle_beta   89.04834818
_cell_angle_gamma   90.21162456
_symmetry_Int_Tables_number   1
_chemical_formula_structural   H20PbC14S(I2N)2
_chemical_formula_sum   'H80 Pb4 C56 S4 I16 N8'
_cell_volume   2888.39333210
_cell_formula_units_Z   4
loop_
 _symmetry_equiv_pos_site_id
 _symmetry_equiv_pos_as_xyz
  1  'x, y, z'
loop_
 _atom_site_type_symbol
 _atom_site_label
 _atom_site_symmetry_multiplicity
 _atom_site_fract_x
 _atom_site_fract_y
 _atom_site_fract_z
 _atom_site_occupancy
  H  H0  1  0.22836213  0.32673803  0.90230846  1
  H  H1  1  0.32773023  0.24678835  0.87069174  1
  H  H2  1  0.31554815  0.37518582  0.84051014  1
  H  H3  1  0.12679795  0.32524916  0.80326596  1
  H  H4  1  0.16257439  0.18781151  0.82309012  1
  H  H5  1  0.30743817  0.19198309  0.73157759  1
  H  H6  1  0.29135303  0.33443593  0.71795115  1
  H  H7  1  0.10686487  0.16773880  0.69876010  1
  H  H8  1  0.10293959  0.30826301  0.67699364  1
  H  H9  1  0.24174724  0.03935755  0.62143380  1
  H  H10  1  0.30505749  0.03840454  0.49041927  1
  H  H11  1  0.30897015  0.40755744  0.42139789  1
  H  H12  1  0.33770045  0.44589305  0.29631931  1
  H  H13  1  0.38425837  0.37253940  0.18081077  1
  H  H14  1  0.37205634  0.23106866  0.16488127  1
  H  H15  1  0.24924401  0.35239041  0.10009810  1
  H  H16  1  0.17698054  0.37794434  0.17233607  1
  H  H17  1  0.18376603  0.25222940  0.14161235  1
  H  H18  1  0.28652799  0.10591660  0.25270056  1
  H  H19  1  0.25200725  0.06796194  0.37732491  1
  H  H20  1  0.32931113  0.75623133  0.90494817  1
  H  H21  1  0.24353268  0.66556024  0.87042233  1
  H  H22  1  0.37423552  0.66912663  0.84422428  1
  H  H23  1  0.34706870  0.85996398  0.80153586  1
  H  H24  1  0.20691947  0.84318434  0.82341039  1
  H  H25  1  0.19109106  0.69172612  0.73781382  1
  H  H26  1  0.33283517  0.70099533  0.71788700  1
  H  H27  1  0.16970514  0.88888150  0.69931666  1
  H  H28  1  0.30982376  0.89317187  0.67585152  1
  H  H29  1  0.03651192  0.75717700  0.62336324  1
  H  H30  1  0.03493072  0.69654600  0.49313607  1
  H  H31  1  0.40448105  0.68661623  0.42383072  1
  H  H32  1  0.43992791  0.65455424  0.29889239  1
  H  H33  1  0.36048821  0.60179146  0.18656708  1
  H  H34  1  0.22053642  0.62764871  0.16911013  1
  H  H35  1  0.35750415  0.73439478  0.10219771  1
  H  H36  1  0.38751753  0.80730594  0.17245690  1
  H  H37  1  0.26332763  0.81029149  0.13877296  1
  H  H38  1  0.10158141  0.71536124  0.25529649  1
  H  H39  1  0.06573309  0.75120943  0.37925935  1
  H  H40  1  0.64908486  0.25002973  0.10221729  1
  H  H41  1  0.74706464  0.16469599  0.12524248  1
  H  H42  1  0.62455088  0.15505868  0.16353447  1
  H  H43  1  0.65084402  0.35089065  0.20104881  1
  H  H44  1  0.78942058  0.33524625  0.17598601  1
  H  H45  1  0.80999293  0.18653412  0.26663770  1
  H  H46  1  0.66817149  0.19424540  0.28741890  1
  H  H47  1  0.82908149  0.38653419  0.29755344  1
  H  H48  1  0.68938377  0.38873502  0.32194318  1
  H  H49  1  0.96262273  0.25187551  0.37496182  1
  H  H50  1  0.96571458  0.18997491  0.50648228  1
  H  H51  1  0.59783932  0.18638090  0.57901961  1
  H  H52  1  0.56549529  0.14829830  0.70443721  1
  H  H53  1  0.65656812  0.08024600  0.81530633  1
  H  H54  1  0.79448128  0.11900721  0.83176078  1
  H  H55  1  0.65741366  0.21065490  0.89972243  1
  H  H56  1  0.60590816  0.27337939  0.82886264  1
  H  H57  1  0.73243987  0.30045417  0.85511569  1
  H  H58  1  0.90704910  0.20058502  0.74321560  1
  H  H59  1  0.93920593  0.24404128  0.61822768  1
  H  H60  1  0.73665798  0.64551553  0.10727064  1
  H  H61  1  0.83167750  0.73971806  0.12053043  1
  H  H62  1  0.83362702  0.62218369  0.16553042  1
  H  H63  1  0.63758705  0.67136822  0.20331421  1
  H  H64  1  0.67466219  0.80592995  0.17729726  1
  H  H65  1  0.81659316  0.81153652  0.26772657  1
  H  H66  1  0.80234821  0.66925182  0.28474452  1
  H  H67  1  0.61344395  0.83134410  0.30249238  1
  H  H68  1  0.61241528  0.69190177  0.32637643  1
  H  H69  1  0.75050215  0.96472895  0.37716593  1
  H  H70  1  0.81121362  0.96728256  0.50752821  1
  H  H71  1  0.81097942  0.59924831  0.57877163  1
  H  H72  1  0.84506100  0.56415272  0.70333314  1
  H  H73  1  0.90305086  0.64530259  0.81544277  1
  H  H74  1  0.88033026  0.78541005  0.83182845  1
  H  H75  1  0.76996107  0.66123098  0.90155018  1
  H  H76  1  0.70193753  0.61723226  0.83200921  1
  H  H77  1  0.69138575  0.74556981  0.85751014  1
  H  H78  1  0.79884632  0.90507367  0.74496625  1
  H  H79  1  0.75845354  0.94002719  0.62141161  1
  Pb  Pb80  1  0.00692955  0.00051156  0.00152426  1
  Pb  Pb81  1  0.01663552  0.51076628  0.00576781  1
  Pb  Pb82  1  0.49265791  0.00534986  0.00247390  1
  Pb  Pb83  1  0.52113906  0.49463210  0.97968094  1
  C  C84  1  0.19446883  0.26681791  0.80396330  1
  C  C85  1  0.24740210  0.25849860  0.73226620  1
  C  C86  1  0.15722397  0.23689648  0.67926465  1
  C  C87  1  0.19920926  0.20956318  0.60816921  1
  C  C88  1  0.23839041  0.11008083  0.58672089  1
  C  C89  1  0.27140958  0.10958303  0.51605542  1
  C  C90  1  0.25760102  0.20915136  0.48240634  1
  C  C91  1  0.27716460  0.23496287  0.40888476  1
  C  C92  1  0.30134862  0.34143683  0.38451696  1
  C  C93  1  0.31796962  0.36292120  0.31388268  1
  C  C94  1  0.31156354  0.27882038  0.26560118  1
  C  C95  1  0.33217278  0.30052054  0.18988046  1
  C  C96  1  0.28919003  0.17244307  0.28962560  1
  C  C97  1  0.27156648  0.15087590  0.35993541  1
  C  C98  1  0.27997810  0.80027956  0.80429935  1
  C  C99  1  0.26086492  0.74847131  0.73425863  1
  C  C100  1  0.23805434  0.83877143  0.67989969  1
  C  C101  1  0.20866744  0.79738397  0.60970230  1
  C  C102  1  0.10791652  0.76037889  0.58878556  1
  C  C103  1  0.10686412  0.72860567  0.51852758  1
  C  C104  1  0.20698689  0.74094753  0.48455423  1
  C  C105  1  0.23217090  0.72155664  0.41125468  1
  C  C106  1  0.33802799  0.69510589  0.38701750  1
  C  C107  1  0.35798594  0.67706289  0.31668978  1
  C  C108  1  0.27358462  0.68464542  0.26847739  1
  C  C109  1  0.29380431  0.66042857  0.19352151  1
  C  C110  1  0.16818374  0.71058958  0.29222262  1
  C  C111  1  0.14795781  0.72920454  0.36220799  1
  C  C112  1  0.71754195  0.29172265  0.19759321  1
  C  C113  1  0.73956177  0.24195417  0.26859859  1
  C  C114  1  0.76172821  0.33561312  0.31909433  1
  C  C115  1  0.79245977  0.29637349  0.39010112  1
  C  C116  1  0.89256202  0.25670587  0.41044709  1
  C  C117  1  0.89426734  0.22407149  0.48117783  1
  C  C118  1  0.79524126  0.23861036  0.51568529  1
  C  C119  1  0.77124984  0.21793023  0.58930551  1
  C  C120  1  0.66559749  0.19210953  0.61498284  1
  C  C121  1  0.64741846  0.17043900  0.68550669  1
  C  C122  1  0.73421409  0.17363754  0.73225392  1
  C  C123  1  0.71800961  0.14485066  0.80752293  1
  C  C124  1  0.83919697  0.20006343  0.70708920  1
  C  C125  1  0.85734500  0.22242922  0.63692599  1
  C  C126  1  0.70622516  0.72905024  0.19887117  1
  C  C127  1  0.75775984  0.74351471  0.26924230  1
  C  C128  1  0.66522367  0.76478025  0.32248749  1
  C  C129  1  0.70476079  0.79486785  0.39269881  1
  C  C130  1  0.74473631  0.89467917  0.41264036  1
  C  C131  1  0.77672798  0.89603053  0.48284348  1
  C  C132  1  0.76149366  0.79700235  0.51743042  1
  C  C133  1  0.78121775  0.77221738  0.59065125  1
  C  C134  1  0.80497137  0.66618812  0.61528107  1
  C  C135  1  0.82425917  0.64640648  0.68549604  1
  C  C136  1  0.82076740  0.73183916  0.73306863  1
  C  C137  1  0.84532467  0.71258503  0.80805996  1
  C  C138  1  0.79815105  0.83758478  0.70870648  1
  C  C139  1  0.77784370  0.85747231  0.63890610  1
  S  S140  1  0.20413758  0.30320350  0.54012876  1
  S  S141  1  0.30253456  0.79135864  0.54170932  1
  S  S142  1  0.70009078  0.29245064  0.45888657  1
  S  S143  1  0.70766090  0.70222255  0.46120444  1
  I  I144  1  0.24617943  0.90467147  0.00527172  1
  I  I145  1  0.27022268  0.55477021  0.01895574  1
  I  I146  1  0.74338879  0.07084087  0.99280846  1
  I  I147  1  0.77079667  0.42867586  0.96847313  1
  I  I148  1  0.07766087  0.25465449  0.00031880  1
  I  I149  1  0.91681264  0.75079039  0.99405505  1
  I  I150  1  0.43351184  0.25573388  0.01289371  1
  I  I151  1  0.55847499  0.75411827  0.98259468  1
  I  I152  1  0.01127005  0.99698855  0.83321540  1
  I  I153  1  0.96822032  0.98855731  0.16626941  1
  I  I154  1  0.07785619  0.53099841  0.84578543  1
  I  I155  1  0.99623550  0.49325207  0.18037617  1
  I  I156  1  0.43760525  0.05783910  0.84344907  1
  I  I157  1  0.49941046  0.99064206  0.17656010  1
  I  I158  1  0.50317133  0.49725531  0.80774538  1
  I  I159  1  0.54703702  0.50985338  0.13881140  1
  N  N160  1  0.27178574  0.30696862  0.85747686  1
  N  N161  1  0.22940510  0.32169029  0.14933090  1
  N  N162  1  0.30907829  0.71791195  0.85930196  1
  N  N163  1  0.32775841  0.75899017  0.15013526  1
  N  N164  1  0.68324577  0.21099927  0.14463063  1
  N  N165  1  0.67537150  0.23898207  0.84952290  1
  N  N166  1  0.78177605  0.68215017  0.14552068  1
  N  N167  1  0.74557393  0.68209317  0.85159016  1
