# generated using pymatgen
data_H19PbC13I4N3
_symmetry_space_group_name_H-M   'P 1'
_cell_length_a   12.49718147
_cell_length_b   12.38011068
_cell_length_c   17.46021549
_cell_angle_alpha   90.25633029
_cell_angle_beta   89.59851164
_cell_angle_gamma   90.25155826
_symmetry_Int_Tables_number   1
_chemical_formula_structural   H19PbC13I4N3
_chemical_formula_sum   'H76 Pb4 C52 I16 N12'
_cell_volume   2701.26422756
_cell_formula_units_Z   4
loop_
 _symmetry_equiv_pos_site_id
 _symmetry_equiv_pos_as_xyz
  1  'x, y, z'
loop_
 _atom_site_type_symbol
 _atom_site_label
 _atom_site_symmetry_multiplicity
 _atom_site_fract_x
 _atom_site_fract_y
 _atom_site_fract_z
 _atom_site_occupancy
  H  H0  1  0.17015395  0.21315049  0.90015401  1
  H  H1  1  0.24029500  0.11817535  0.85483927  1
  H  H2  1  0.30058534  0.23302964  0.88263355  1
  H  H3  1  0.12637981  0.20702012  0.76669115  1
  H  H4  1  0.17885037  0.33418954  0.79622807  1
  H  H5  1  0.30837206  0.15146624  0.71845762  1
  H  H6  1  0.36174075  0.27757134  0.74733450  1
  H  H7  1  0.18301695  0.44288931  0.67581475  1
  H  H8  1  0.17353288  0.45884191  0.51990820  1
  H  H9  1  0.30417073  0.42970655  0.40600894  1
  H  H10  1  0.32885348  0.38167918  0.26955591  1
  H  H11  1  0.37309503  0.23368031  0.17723174  1
  H  H12  1  0.32482656  0.10056330  0.19272412  1
  H  H13  1  0.14783262  0.15624565  0.16736238  1
  H  H14  1  0.17847674  0.28810384  0.16577318  1
  H  H15  1  0.22775682  0.20574151  0.09756620  1
  H  H16  1  0.25422109  0.04932130  0.32053084  1
  H  H17  1  0.22802009  0.09697219  0.45685566  1
  H  H18  1  0.31524038  0.16205711  0.57666190  1
  H  H19  1  0.22240934  0.83164271  0.90090585  1
  H  H20  1  0.12503027  0.76606127  0.85583602  1
  H  H21  1  0.23436750  0.69886081  0.88361299  1
  H  H22  1  0.22055575  0.87442414  0.76641026  1
  H  H23  1  0.34243331  0.81458862  0.79554669  1
  H  H24  1  0.15326872  0.69271647  0.72083203  1
  H  H25  1  0.27633226  0.63378970  0.74721624  1
  H  H26  1  0.44558278  0.81187143  0.67382294  1
  H  H27  1  0.46023267  0.82299574  0.51862749  1
  H  H28  1  0.42664467  0.69278533  0.40496644  1
  H  H29  1  0.37705027  0.66376364  0.26960319  1
  H  H30  1  0.22789254  0.62079108  0.17847304  1
  H  H31  1  0.09656130  0.66935296  0.19691740  1
  H  H32  1  0.15957875  0.85205359  0.17565453  1
  H  H33  1  0.28520480  0.80825703  0.16045400  1
  H  H34  1  0.18781560  0.77355463  0.10074914  1
  H  H35  1  0.04964619  0.74405636  0.32389875  1
  H  H36  1  0.09893228  0.77367685  0.45932833  1
  H  H37  1  0.16294507  0.68385053  0.57856239  1
  H  H38  1  0.77773232  0.32675736  0.09703986  1
  H  H39  1  0.87790387  0.26669934  0.14239706  1
  H  H40  1  0.76565922  0.19567970  0.12219550  1
  H  H41  1  0.79177035  0.37972997  0.23086779  1
  H  H42  1  0.66471992  0.32471627  0.20581934  1
  H  H43  1  0.85008805  0.20045866  0.28123107  1
  H  H44  1  0.72644842  0.14218914  0.25300061  1
  H  H45  1  0.55464140  0.31343440  0.32724820  1
  H  H46  1  0.53860855  0.32195390  0.48237962  1
  H  H47  1  0.57406588  0.19435684  0.59517235  1
  H  H48  1  0.62272200  0.16956802  0.73105205  1
  H  H49  1  0.76773001  0.13572787  0.82401047  1
  H  H50  1  0.89985874  0.18296236  0.80690008  1
  H  H51  1  0.84315895  0.36502419  0.82608387  1
  H  H52  1  0.71323910  0.33115532  0.83111492  1
  H  H53  1  0.79837051  0.29185660  0.89904673  1
  H  H54  1  0.95008857  0.25317620  0.67718456  1
  H  H55  1  0.90169749  0.27892685  0.54190239  1
  H  H56  1  0.84043365  0.19528178  0.42186663  1
  H  H57  1  0.66330329  0.77606340  0.09841021  1
  H  H58  1  0.72032222  0.87913623  0.14340850  1
  H  H59  1  0.79490838  0.77053110  0.11847361  1
  H  H60  1  0.61923267  0.78662273  0.23481184  1
  H  H61  1  0.67415728  0.66099771  0.20508000  1
  H  H62  1  0.80053531  0.84932815  0.27917443  1
  H  H63  1  0.85671161  0.72526103  0.24927634  1
  H  H64  1  0.68280433  0.55364006  0.32564973  1
  H  H65  1  0.67517979  0.53858997  0.48037865  1
  H  H66  1  0.80372388  0.57269925  0.59326387  1
  H  H67  1  0.82653029  0.62171162  0.72951803  1
  H  H68  1  0.86248515  0.76933471  0.82377097  1
  H  H69  1  0.81338479  0.90171436  0.80798126  1
  H  H70  1  0.63401625  0.83919861  0.82472748  1
  H  H71  1  0.67141054  0.70846735  0.83108065  1
  H  H72  1  0.70496714  0.79835155  0.89870291  1
  H  H73  1  0.74889552  0.95255416  0.67819522  1
  H  H74  1  0.72401381  0.90361991  0.54236812  1
  H  H75  1  0.81061289  0.83968737  0.42104066  1
  Pb  Pb76  1  0.00518901  -0.00306925  0.00572504  1
  Pb  Pb77  1  0.00793106  0.50105884  0.00304052  1
  Pb  Pb78  1  0.50881727  0.01659060  0.00151325  1
  Pb  Pb79  1  0.50073590  0.50137906  0.99784442  1
  C  C80  1  0.19929575  0.24944251  0.78484585  1
  C  C81  1  0.28866761  0.23762071  0.72568200  1
  C  C82  1  0.25680873  0.28517378  0.65075984  1
  C  C83  1  0.21066115  0.38409402  0.63385959  1
  C  C84  1  0.20622249  0.39286112  0.55298140  1
  C  C85  1  0.24851187  0.29868630  0.52139175  1
  C  C86  1  0.26318276  0.26734736  0.44148328  1
  C  C87  1  0.29055751  0.34672140  0.38711864  1
  C  C88  1  0.30420227  0.31969234  0.31043913  1
  C  C89  1  0.29116498  0.21265989  0.28539148  1
  C  C90  1  0.30727983  0.18627430  0.20221345  1
  C  C91  1  0.26480460  0.13298354  0.33910894  1
  C  C92  1  0.25099951  0.15979832  0.41616483  1
  C  C93  1  0.25740459  0.79879351  0.78502036  1
  C  C94  1  0.23965522  0.70909296  0.72650706  1
  C  C95  1  0.28677348  0.74062690  0.65090718  1
  C  C96  1  0.38578935  0.78568405  0.63283381  1
  C  C97  1  0.39371238  0.79112347  0.55196280  1
  C  C98  1  0.29881958  0.75077054  0.52150761  1
  C  C99  1  0.26687341  0.73604877  0.44215638  1
  C  C100  1  0.34448856  0.70672976  0.38692453  1
  C  C101  1  0.31651231  0.69087468  0.31083623  1
  C  C102  1  0.21023342  0.70393911  0.28722886  1
  C  C103  1  0.18183254  0.68662768  0.20487672  1
  C  C104  1  0.13250995  0.73319364  0.34164116  1
  C  C105  1  0.16022032  0.74888792  0.41805838  1
  C  C106  1  0.74922378  0.30522170  0.21511308  1
  C  C107  1  0.76413800  0.21724940  0.27459875  1
  C  C108  1  0.71524273  0.24766927  0.34981308  1
  C  C109  1  0.61480678  0.28863642  0.36806316  1
  C  C110  1  0.60589754  0.29194093  0.44900572  1
  C  C111  1  0.70143292  0.25399607  0.47933697  1
  C  C112  1  0.73359262  0.23929437  0.55847126  1
  C  C113  1  0.65605614  0.20923329  0.61350181  1
  C  C114  1  0.68347593  0.19562606  0.68969818  1
  C  C115  1  0.78929801  0.21149879  0.71374447  1
  C  C116  1  0.81509141  0.20015825  0.79693451  1
  C  C117  1  0.86743746  0.23994200  0.65940348  1
  C  C118  1  0.84013967  0.25355382  0.58279430  1
  C  C119  1  0.69271574  0.74655750  0.21525247  1
  C  C120  1  0.78301686  0.76244764  0.27255251  1
  C  C121  1  0.75428467  0.71406271  0.34831983  1
  C  C122  1  0.71045437  0.61392175  0.36642729  1
  C  C123  1  0.70685175  0.60572395  0.44735912  1
  C  C124  1  0.74733150  0.70150994  0.47795099  1
  C  C125  1  0.76185238  0.73407486  0.55751534  1
  C  C126  1  0.79002230  0.65566812  0.61197783  1
  C  C127  1  0.80260816  0.68325772  0.68852811  1
  C  C128  1  0.78776399  0.79000686  0.71355044  1
  C  C129  1  0.79803527  0.81577591  0.79721573  1
  C  C130  1  0.76110079  0.86905682  0.65979962  1
  C  C131  1  0.74831116  0.84151860  0.58283569  1
  I  I132  1  0.25725201  0.96262934  0.01123875  1
  I  I133  1  0.25238613  0.55246012  0.97811003  1
  I  I134  1  0.75873052  0.02785691  0.98066004  1
  I  I135  1  0.75379099  0.46886537  0.00678106  1
  I  I136  1  0.01568174  0.24761195  0.98218203  1
  I  I137  1  0.96453063  0.74765901  0.03787043  1
  I  I138  1  0.41711006  0.25673383  1.00087786  1
  I  I139  1  0.52540616  0.75811561  0.00085491  1
  I  I140  1  0.03719816  0.98762043  0.82435372  1
  I  I141  1  0.01428869  0.00736232  0.19587118  1
  I  I142  1  0.99307313  0.50826416  0.81847833  1
  I  I143  1  0.02808888  0.43134762  0.18258387  1
  I  I144  1  0.50002281  0.99772347  0.81589858  1
  I  I145  1  0.55038577  0.01336421  0.18174569  1
  I  I146  1  0.55224987  0.50459012  0.81539574  1
  I  I147  1  0.49541829  0.49651873  0.17907745  1
  N  N148  1  0.23073556  0.20070398  0.85942945  1
  N  N149  1  0.20947683  0.21119851  0.15526011  1
  N  N150  1  0.27722199  0.23386029  0.58214212  1
  N  N151  1  0.20709963  0.77144427  0.86043512  1
  N  N152  1  0.20583794  0.78624451  0.15781189  1
  N  N153  1  0.23425640  0.72243411  0.58304633  1
  N  N154  1  0.79512391  0.26968244  0.13964241  1
  N  N155  1  0.78997090  0.30263401  0.84075626  1
  N  N156  1  0.76709231  0.22907650  0.41768689  1
  N  N157  1  0.72101031  0.79552031  0.13965417  1
  N  N158  1  0.69639477  0.78768023  0.84034729  1
  N  N159  1  0.77425730  0.76665736  0.41644474  1
