# generated using pymatgen
data_H17PbC14I4N3
_symmetry_space_group_name_H-M   'P 1'
_cell_length_a   12.05472309
_cell_length_b   12.05412612
_cell_length_c   17.09490093
_cell_angle_alpha   89.99883149
_cell_angle_beta   90.00085532
_cell_angle_gamma   89.99971245
_symmetry_Int_Tables_number   1
_chemical_formula_structural   H17PbC14I4N3
_chemical_formula_sum   'H68 Pb4 C56 I16 N12'
_cell_volume   2484.04556492
_cell_formula_units_Z   4
loop_
 _symmetry_equiv_pos_site_id
 _symmetry_equiv_pos_as_xyz
  1  'x, y, z'
loop_
 _atom_site_type_symbol
 _atom_site_label
 _atom_site_symmetry_multiplicity
 _atom_site_fract_x
 _atom_site_fract_y
 _atom_site_fract_z
 _atom_site_occupancy
  H  H0  1  0.16482466  0.32098184  0.82584198  1
  H  H1  1  0.21252504  0.22166720  0.88673787  1
  H  H2  1  0.14195774  0.18595758  0.80661835  1
  H  H3  1  0.34073793  0.15105679  0.79518208  1
  H  H4  1  0.36419475  0.29500643  0.81152901  1
  H  H5  1  0.30310510  0.43442582  0.71644890  1
  H  H6  1  0.27140685  0.48194250  0.57679605  1
  H  H7  1  0.28734056  0.08348171  0.66508069  1
  H  H8  1  0.25518469  0.04485616  0.50175975  1
  H  H9  1  0.21892041  0.07738502  0.33852341  1
  H  H10  1  0.16676708  0.14069960  0.20615445  1
  H  H11  1  0.13945716  0.28355532  0.18898031  1
  H  H12  1  0.29080974  0.22188146  0.11275755  1
  H  H13  1  0.34125459  0.31293917  0.17790135  1
  H  H14  1  0.36258606  0.17548212  0.18953429  1
  H  H15  1  0.20264820  0.42641603  0.28103152  1
  H  H16  1  0.23132822  0.47902816  0.42021858  1
  H  H17  1  0.32093527  0.83517265  0.82586381  1
  H  H18  1  0.22162018  0.78746994  0.88673824  1
  H  H19  1  0.18592357  0.85804164  0.80661207  1
  H  H20  1  0.15106030  0.65923078  0.79517049  1
  H  H21  1  0.29500966  0.63581494  0.81153465  1
  H  H22  1  0.43442816  0.69690970  0.71645899  1
  H  H23  1  0.48195011  0.72860019  0.57680650  1
  H  H24  1  0.08350191  0.71265272  0.66507276  1
  H  H25  1  0.04487797  0.74480020  0.50175338  1
  H  H26  1  0.07740048  0.78105737  0.33851929  1
  H  H27  1  0.14069982  0.83323482  0.20615359  1
  H  H28  1  0.28355332  0.86054870  0.18897692  1
  H  H29  1  0.22186021  0.70920412  0.11274578  1
  H  H30  1  0.31293151  0.65874457  0.17788383  1
  H  H31  1  0.17549437  0.63741686  0.18952879  1
  H  H32  1  0.42641487  0.79735330  0.28102571  1
  H  H33  1  0.47903169  0.76866547  0.42021407  1
  H  H34  1  0.68702661  0.34123300  0.17791221  1
  H  H35  1  0.77807541  0.29078802  0.11275609  1
  H  H36  1  0.82446777  0.36255943  0.18953592  1
  H  H37  1  0.85927751  0.16674626  0.20615731  1
  H  H38  1  0.71642326  0.13941961  0.18898370  1
  H  H39  1  0.57356417  0.20260860  0.28102932  1
  H  H40  1  0.52095128  0.23132542  0.42021428  1
  H  H41  1  0.92257982  0.21891537  0.33852668  1
  H  H42  1  0.95511147  0.25520020  0.50175730  1
  H  H43  1  0.91648789  0.28737223  0.66507438  1
  H  H44  1  0.84893228  0.34078215  0.79517663  1
  H  H45  1  0.70498433  0.36422034  0.81153037  1
  H  H46  1  0.77832597  0.21254094  0.88673547  1
  H  H47  1  0.67902514  0.16485804  0.82584420  1
  H  H48  1  0.81403852  0.14197732  0.80661215  1
  H  H49  1  0.56556247  0.30312870  0.71645445  1
  H  H50  1  0.51803882  0.27141962  0.57680443  1
  H  H51  1  0.65877599  0.68706881  0.17789956  1
  H  H52  1  0.70922763  0.77812770  0.11275398  1
  H  H53  1  0.63744295  0.82452588  0.18952787  1
  H  H54  1  0.83326389  0.85930471  0.20615556  1
  H  H55  1  0.86057041  0.71644898  0.18898679  1
  H  H56  1  0.79736030  0.57358552  0.28103765  1
  H  H57  1  0.76864781  0.52097302  0.42022190  1
  H  H58  1  0.78107710  0.92261312  0.33852379  1
  H  H59  1  0.74479023  0.95514861  0.50175081  1
  H  H60  1  0.71262328  0.91651473  0.66507344  1
  H  H61  1  0.65922130  0.84894517  0.79518065  1
  H  H62  1  0.63577874  0.70499331  0.81153461  1
  H  H63  1  0.78745492  0.77836680  0.88673963  1
  H  H64  1  0.83513498  0.67903264  0.82586703  1
  H  H65  1  0.85801210  0.81404781  0.80660880  1
  H  H66  1  0.69686752  0.56557581  0.71645961  1
  H  H67  1  0.72856320  0.51805872  0.57680941  1
  Pb  Pb68  1  0.00010524  0.00005492  0.99271425  1
  Pb  Pb69  1  0.00021798  0.49991637  0.99796081  1
  Pb  Pb70  1  0.50005048  0.99999911  0.99737148  1
  Pb  Pb71  1  0.50015515  0.50005330  0.00374868  1
  C  C72  1  0.30786567  0.23450296  0.78427852  1
  C  C73  1  0.29295175  0.25721816  0.69864408  1
  C  C74  1  0.28966727  0.36878533  0.67362531  1
  C  C75  1  0.27283117  0.39549633  0.59560955  1
  C  C76  1  0.25924981  0.30919133  0.54168702  1
  C  C77  1  0.26482967  0.19652342  0.56672217  1
  C  C78  1  0.28174277  0.16945908  0.64537664  1
  C  C79  1  0.23728307  0.19413674  0.43519324  1
  C  C80  1  0.22225458  0.16415493  0.35680709  1
  C  C81  1  0.21167272  0.25002286  0.30194865  1
  C  C82  1  0.19758481  0.22503053  0.21650095  1
  C  C83  1  0.21438706  0.36236492  0.32521219  1
  C  C84  1  0.22915490  0.39195734  0.40288396  1
  C  C85  1  0.24137711  0.30766457  0.45846859  1
  C  C86  1  0.23449769  0.69213008  0.78427679  1
  C  C87  1  0.25722816  0.70705791  0.69864627  1
  C  C88  1  0.36879020  0.71034762  0.67363327  1
  C  C89  1  0.39550626  0.72717861  0.59561424  1
  C  C90  1  0.30920294  0.74075200  0.54168617  1
  C  C91  1  0.19654475  0.73516938  0.56671837  1
  C  C92  1  0.16947570  0.71825983  0.64537314  1
  C  C93  1  0.19415585  0.76269875  0.43518926  1
  C  C94  1  0.16416922  0.77772567  0.35680106  1
  C  C95  1  0.25002936  0.78831425  0.30194349  1
  C  C96  1  0.22503048  0.80241825  0.21649659  1
  C  C97  1  0.36236909  0.78560279  0.32520500  1
  C  C98  1  0.39196436  0.77083474  0.40288090  1
  C  C99  1  0.30767680  0.75861312  0.45846583  1
  C  C100  1  0.77494415  0.19755181  0.21650380  1
  C  C101  1  0.74995074  0.21165209  0.30195050  1
  C  C102  1  0.63761198  0.21436615  0.32521074  1
  C  C103  1  0.60801567  0.22915122  0.40288133  1
  C  C104  1  0.69230649  0.24138412  0.45846991  1
  C  C105  1  0.80583070  0.23729098  0.43519338  1
  C  C106  1  0.83581125  0.22225041  0.35680759  1
  C  C107  1  0.80344347  0.26484833  0.56671730  1
  C  C108  1  0.83051499  0.28176718  0.64537269  1
  C  C109  1  0.74276238  0.29297754  0.69864425  1
  C  C110  1  0.76549116  0.30789843  0.78427489  1
  C  C111  1  0.63120213  0.28968514  0.67363003  1
  C  C112  1  0.60447853  0.27284623  0.59561358  1
  C  C113  1  0.69078461  0.25926290  0.54168381  1
  C  C114  1  0.80244647  0.77497780  0.21650321  1
  C  C115  1  0.78834177  0.74997587  0.30194952  1
  C  C116  1  0.78561894  0.63764218  0.32521523  1
  C  C117  1  0.77083122  0.60802982  0.40288460  1
  C  C118  1  0.75859925  0.69233908  0.45847532  1
  C  C119  1  0.76269785  0.80585965  0.43519692  1
  C  C120  1  0.77774463  0.83584998  0.35680479  1
  C  C121  1  0.73513800  0.80347204  0.56671437  1
  C  C122  1  0.71822153  0.83054636  0.64537830  1
  C  C123  1  0.70701513  0.74277947  0.69864765  1
  C  C124  1  0.69210059  0.76550439  0.78428289  1
  C  C125  1  0.71030423  0.63122178  0.67363589  1
  C  C126  1  0.72713859  0.60449166  0.59561655  1
  C  C127  1  0.74072010  0.69081481  0.54168505  1
  I  I128  1  0.24982454  0.07801562  0.99514603  1
  I  I129  1  0.24910083  0.41905397  0.00638782  1
  I  I130  1  0.75028845  0.92204344  0.99517592  1
  I  I131  1  0.75119862  0.58095530  0.00632207  1
  I  I132  1  0.92197396  0.24977796  0.99517075  1
  I  I133  1  0.07797149  0.75023065  0.99515771  1
  I  I134  1  0.58094335  0.24893380  0.00629602  1
  I  I135  1  0.41903306  0.75104939  0.00629302  1
  I  I136  1  0.00000346  0.00001127  0.78711543  1
  I  I137  1  0.00003071  1.00000478  0.17187886  1
  I  I138  1  0.00003029  0.49998039  0.80937264  1
  I  I139  1  0.00001796  0.49993917  0.18933004  1
  I  I140  1  0.49999632  1.00000331  0.80918228  1
  I  I141  1  0.49999751  0.99995689  0.18919257  1
  I  I142  1  0.50002376  0.50001232  0.82276859  1
  I  I143  1  0.50001566  0.50000001  0.20032900  1
  N  N144  1  0.19935372  0.24234005  0.82817551  1
  N  N145  1  0.25096340  0.12878219  0.50154321  1
  N  N146  1  0.30536098  0.23524317  0.17200327  1
  N  N147  1  0.24230116  0.80064749  0.82817836  1
  N  N148  1  0.12879881  0.74902192  0.50153845  1
  N  N149  1  0.23523961  0.69464216  0.17198984  1
  N  N150  1  0.76471731  0.30533609  0.17200305  1
  N  N151  1  0.87117904  0.25097917  0.50154093  1
  N  N152  1  0.75766263  0.19937528  0.82817167  1
  N  N153  1  0.69467084  0.76476419  0.17199982  1
  N  N154  1  0.74900839  0.87120525  0.50153994  1
  N  N155  1  0.80061521  0.75767767  0.82817811  1
