# generated using pymatgen
data_H7PbC4I4N3
_symmetry_space_group_name_H-M   'P 1'
_cell_length_a   12.04266409
_cell_length_b   11.87765360
_cell_length_c   10.16699751
_cell_angle_alpha   89.60177650
_cell_angle_beta   90.13152516
_cell_angle_gamma   86.38952371
_symmetry_Int_Tables_number   1
_chemical_formula_structural   H7PbC4I4N3
_chemical_formula_sum   'H28 Pb4 C16 I16 N12'
_cell_volume   1451.34611889
_cell_formula_units_Z   4
loop_
 _symmetry_equiv_pos_site_id
 _symmetry_equiv_pos_as_xyz
  1  'x, y, z'
loop_
 _atom_site_type_symbol
 _atom_site_label
 _atom_site_symmetry_multiplicity
 _atom_site_fract_x
 _atom_site_fract_y
 _atom_site_fract_z
 _atom_site_occupancy
  H  H0  1  0.18210849  0.27608835  0.76628718  1
  H  H1  1  0.32140009  0.27035364  0.77013020  1
  H  H2  1  0.25587624  0.15154310  0.74715644  1
  H  H3  1  0.25677765  0.43044202  0.57121487  1
  H  H4  1  0.25236138  0.42524663  0.31829753  1
  H  H5  1  0.24419085  0.24831512  0.21764659  1
  H  H6  1  0.24448711  0.07425334  0.33119229  1
  H  H7  1  0.27593885  0.81973693  0.76427765  1
  H  H8  1  0.26017618  0.67994625  0.76983882  1
  H  H9  1  0.14889065  0.77192300  0.74811318  1
  H  H10  1  0.42219324  0.75750528  0.57239062  1
  H  H11  1  0.41645930  0.75710918  0.32053845  1
  H  H12  1  0.24096200  0.75383969  0.21782879  1
  H  H13  1  0.07084711  0.74277000  0.32992236  1
  H  H14  1  0.73101013  0.31333938  0.23154742  1
  H  H15  1  0.72375769  0.17237337  0.23499986  1
  H  H16  1  0.84676543  0.22720827  0.25664399  1
  H  H17  1  0.57035680  0.23702125  0.42640837  1
  H  H18  1  0.57402568  0.24104143  0.67921667  1
  H  H19  1  0.74756813  0.25074978  0.78328246  1
  H  H20  1  0.91983612  0.25392197  0.67281870  1
  H  H21  1  0.69648089  0.74045449  0.22663336  1
  H  H22  1  0.83440192  0.71504294  0.24432155  1
  H  H23  1  0.77710486  0.84911143  0.25231821  1
  H  H24  1  0.74754576  0.57528292  0.43018743  1
  H  H25  1  0.74514376  0.58075325  0.68262209  1
  H  H26  1  0.75130869  0.75815476  0.78370503  1
  H  H27  1  0.76070854  0.93098045  0.67053789  1
  Pb  Pb28  1  0.99743113  0.01262766  0.99577003  1
  Pb  Pb29  1  0.98557533  0.49860977  0.99116520  1
  Pb  Pb30  1  0.49093431  0.99459402  0.00442739  1
  Pb  Pb31  1  0.49398163  0.50998588  0.99893849  1
  C  C32  1  0.25292020  0.24696877  0.57913879  1
  C  C33  1  0.25403066  0.35202227  0.51728668  1
  C  C34  1  0.25212148  0.35038813  0.38061104  1
  C  C35  1  0.24811000  0.15163700  0.38734763  1
  C  C36  1  0.24130788  0.75172187  0.57926370  1
  C  C37  1  0.34462305  0.75386358  0.51833683  1
  C  C38  1  0.34278990  0.75349203  0.38161660  1
  C  C39  1  0.14691353  0.74689607  0.38700364  1
  C  C40  1  0.75133818  0.24242749  0.42210912  1
  C  C41  1  0.64733066  0.24061405  0.48168297  1
  C  C42  1  0.64798346  0.24277408  0.61829605  1
  C  C43  1  0.84402215  0.24900855  0.61546261  1
  C  C44  1  0.75774253  0.75802976  0.42226219  1
  C  C45  1  0.75096427  0.65367486  0.48409194  1
  C  C46  1  0.74943665  0.65547794  0.62079732  1
  C  C47  1  0.75811057  0.85372517  0.61389138  1
  I  I48  1  0.24912884  0.91055308  0.02677603  1
  I  I49  1  0.23737473  0.57484740  0.01788855  1
  I  I50  1  0.73834194  0.07081305  0.98135768  1
  I  I51  1  0.74561682  0.40433636  0.97492975  1
  I  I52  1  0.09777947  0.25191207  0.01940538  1
  I  I53  1  0.93364848  0.76014067  0.97251363  1
  I  I54  1  0.42628432  0.25702000  0.00364012  1
  I  I55  1  0.60445992  0.74490067  0.99168832  1
  I  I56  1  0.02781032  0.00936876  0.68775165  1
  I  I57  1  0.97835560  0.00354071  0.30560018  1
  I  I58  1  0.01863537  0.48189997  0.68313105  1
  I  I59  1  0.96601959  0.51327918  0.30146554  1
  I  I60  1  0.46583046  0.99128648  0.69462776  1
  I  I61  1  0.52139564  0.99556243  0.31429867  1
  I  I62  1  0.47056079  0.50442927  0.68735443  1
  I  I63  1  0.53296970  0.50359225  0.30857588  1
  N  N64  1  0.25321102  0.23668955  0.72273193  1
  N  N65  1  0.24936391  0.25003770  0.31952435  1
  N  N66  1  0.24980677  0.14895989  0.51748295  1
  N  N67  1  0.23187771  0.75553225  0.72307814  1
  N  N68  1  0.24365224  0.75022389  0.31989519  1
  N  N69  1  0.14443159  0.74709843  0.51719046  1
  N  N70  1  0.76267797  0.23916701  0.27845973  1
  N  N71  1  0.74654088  0.24641183  0.68125267  1
  N  N72  1  0.84748484  0.24740862  0.48523373  1
  N  N73  1  0.76622376  0.76600441  0.27888197  1
  N  N74  1  0.75315323  0.75571830  0.68179006  1
  N  N75  1  0.76100831  0.85622328  0.48389660  1
