# generated using pymatgen
data_H7PbC4I4N3
_symmetry_space_group_name_H-M   'P 1'
_cell_length_a   12.16137631
_cell_length_b   11.81439542
_cell_length_c   10.13299289
_cell_angle_alpha   88.46267234
_cell_angle_beta   89.86453430
_cell_angle_gamma   89.96701704
_symmetry_Int_Tables_number   1
_chemical_formula_structural   H7PbC4I4N3
_chemical_formula_sum   'H28 Pb4 C16 I16 N12'
_cell_volume   1455.37311438
_cell_formula_units_Z   4
loop_
 _symmetry_equiv_pos_site_id
 _symmetry_equiv_pos_as_xyz
  1  'x, y, z'
loop_
 _atom_site_type_symbol
 _atom_site_label
 _atom_site_symmetry_multiplicity
 _atom_site_fract_x
 _atom_site_fract_y
 _atom_site_fract_z
 _atom_site_occupancy
  H  H0  1  0.20685747  0.23903051  0.78110728  1
  H  H1  1  0.32403937  0.31305689  0.75510908  1
  H  H2  1  0.32708594  0.16962786  0.75178860  1
  H  H3  1  0.26484083  0.42935118  0.56230598  1
  H  H4  1  0.24301107  0.41827089  0.31044178  1
  H  H5  1  0.23381289  0.23873597  0.21970813  1
  H  H6  1  0.26172262  0.06230722  0.56461132  1
  H  H7  1  0.24866964  0.79560292  0.79210136  1
  H  H8  1  0.30709547  0.66744358  0.75822757  1
  H  H9  1  0.17012584  0.68018354  0.75687531  1
  H  H10  1  0.42430340  0.74296065  0.57070569  1
  H  H11  1  0.41052271  0.76170248  0.31985782  1
  H  H12  1  0.23496661  0.77496666  0.22534258  1
  H  H13  1  0.06754124  0.75878548  0.57013407  1
  H  H14  1  0.75396503  0.28812835  0.20630480  1
  H  H15  1  0.67855124  0.16961004  0.23914415  1
  H  H16  1  0.81588602  0.16056804  0.24554344  1
  H  H17  1  0.56816045  0.23044700  0.42729034  1
  H  H18  1  0.58264813  0.25812363  0.67716129  1
  H  H19  1  0.75763791  0.27443717  0.76884162  1
  H  H20  1  0.92508079  0.24435591  0.42747135  1
  H  H21  1  0.72272320  0.74381259  0.22009872  1
  H  H22  1  0.84337208  0.67742667  0.25802175  1
  H  H23  1  0.83538560  0.82243937  0.25572068  1
  H  H24  1  0.76616978  0.55999976  0.44306781  1
  H  H25  1  0.74138374  0.57243675  0.69467104  1
  H  H26  1  0.73136980  0.75203883  0.78462572  1
  H  H27  1  0.76424830  0.92717089  0.43939327  1
  Pb  Pb28  1  0.99665548  0.00359670  0.96888437  1
  Pb  Pb29  1  1.00111840  0.48789687  0.99019391  1
  Pb  Pb30  1  0.50606178  0.98698024  0.99986433  1
  Pb  Pb31  1  0.49605105  0.50176152  0.03337053  1
  C  C32  1  0.26438427  0.24609695  0.58260872  1
  C  C33  1  0.25900876  0.34859392  0.51397145  1
  C  C34  1  0.24759323  0.34412998  0.37690050  1
  C  C35  1  0.25735546  0.14435468  0.51389529  1
  C  C36  1  0.24608366  0.74622989  0.59007084  1
  C  C37  1  0.34492066  0.75036124  0.52215324  1
  C  C38  1  0.33898011  0.76100803  0.38458429  1
  C  C39  1  0.14674035  0.75839102  0.51992675  1
  C  C40  1  0.74610326  0.23582836  0.40772815  1
  C  C41  1  0.64720009  0.24031534  0.47547371  1
  C  C42  1  0.65341167  0.25474135  0.61160035  1
  C  C43  1  0.84550182  0.24747706  0.47653652  1
  C  C44  1  0.76929735  0.74351749  0.42232857  1
  C  C45  1  0.76011162  0.64091100  0.49113848  1
  C  C46  1  0.74657473  0.64604723  0.62779117  1
  C  C47  1  0.75943447  0.84512794  0.49030566  1
  I  I48  1  0.25293621  0.90713431  1.00023819  1
  I  I49  1  0.24769593  0.56782545  0.07401032  1
  I  I50  1  0.74956053  0.07475309  0.94140626  1
  I  I51  1  0.74857711  0.41352918  0.97158231  1
  I  I52  1  0.11211143  0.24317960  0.00742674  1
  I  I53  1  0.94853856  0.74481367  0.93262805  1
  I  I54  1  0.44274314  0.24216677  0.04906599  1
  I  I55  1  0.61841880  0.74184536  1.00261517  1
  I  I56  1  0.03903246  0.02342567  0.66797033  1
  I  I57  1  0.94925144  0.00427851  0.28527727  1
  I  I58  1  0.05399870  0.49780085  0.68191977  1
  I  I59  1  0.95776916  0.49750387  0.29882456  1
  I  I60  1  0.47143280  0.01512233  0.68991758  1
  I  I61  1  0.55110414  0.98087964  0.30900514  1
  I  I62  1  0.44827212  0.50475885  0.72054512  1
  I  I63  1  0.53480557  0.50613844  0.33925431  1
  N  N64  1  0.28038963  0.24185295  0.72497777  1
  N  N65  1  0.24310877  0.24311530  0.32134734  1
  N  N66  1  0.24745764  0.14258057  0.38311700  1
  N  N67  1  0.24292731  0.72345279  0.73169386  1
  N  N68  1  0.24020694  0.76847165  0.32758886  1
  N  N69  1  0.14356305  0.76944533  0.38901864  1
  N  N70  1  0.74841036  0.21472949  0.26675545  1
  N  N71  1  0.75233721  0.26433139  0.66740074  1
  N  N72  1  0.84890611  0.26180618  0.60636763  1
  N  N73  1  0.79289436  0.74708051  0.28149792  1
  N  N74  1  0.74119914  0.74734631  0.68292912  1
  N  N75  1  0.74544202  0.84738833  0.62061917  1
