# generated using pymatgen
data_H9PbC5I4N3
_symmetry_space_group_name_H-M   'P 1'
_cell_length_a   12.60043832
_cell_length_b   12.36976208
_cell_length_c   10.47232324
_cell_angle_alpha   84.42185469
_cell_angle_beta   84.09535615
_cell_angle_gamma   90.85914454
_symmetry_Int_Tables_number   1
_chemical_formula_structural   H9PbC5I4N3
_chemical_formula_sum   'H36 Pb4 C20 I16 N12'
_cell_volume   1615.39906910
_cell_formula_units_Z   4
loop_
 _symmetry_equiv_pos_site_id
 _symmetry_equiv_pos_as_xyz
  1  'x, y, z'
loop_
 _atom_site_type_symbol
 _atom_site_label
 _atom_site_symmetry_multiplicity
 _atom_site_fract_x
 _atom_site_fract_y
 _atom_site_fract_z
 _atom_site_occupancy
  H  H0  1  0.22556159  0.33010876  0.81906063  1
  H  H1  1  0.21992822  0.20664254  0.76603715  1
  H  H2  1  0.12773097  0.30003558  0.73178049  1
  H  H3  1  0.25460779  0.42327975  0.60978453  1
  H  H4  1  0.35862893  0.33197074  0.63952988  1
  H  H5  1  0.26924330  0.11455148  0.58070143  1
  H  H6  1  0.22756172  0.04239497  0.37424475  1
  H  H7  1  0.20339357  0.34463038  0.20240659  1
  H  H8  1  0.23027548  0.43479059  0.38236250  1
  H  H9  1  0.34817980  0.77748496  0.81458105  1
  H  H10  1  0.22376681  0.77885254  0.77328668  1
  H  H11  1  0.31540834  0.87959136  0.71277551  1
  H  H12  1  0.43060374  0.75794703  0.60575715  1
  H  H13  1  0.34385055  0.64706283  0.66521498  1
  H  H14  1  0.12377765  0.74885121  0.59371182  1
  H  H15  1  0.05284985  0.76303721  0.37707898  1
  H  H16  1  0.34903585  0.76373594  0.19242857  1
  H  H17  1  0.43741330  0.75112110  0.37767860  1
  H  H18  1  0.67001725  0.27047774  0.17967027  1
  H  H19  1  0.79228421  0.26601940  0.22754035  1
  H  H20  1  0.70948845  0.36732143  0.26559970  1
  H  H21  1  0.57914115  0.24243072  0.38873973  1
  H  H22  1  0.66484635  0.13366980  0.35890775  1
  H  H23  1  0.88271215  0.22457112  0.41436934  1
  H  H24  1  0.95360429  0.26431364  0.62060580  1
  H  H25  1  0.65720498  0.28678632  0.79765237  1
  H  H26  1  0.56844440  0.26141465  0.61767629  1
  H  H27  1  0.73217294  0.66028530  0.18470069  1
  H  H28  1  0.73744672  0.78694391  0.22705869  1
  H  H29  1  0.63379142  0.70000773  0.28475217  1
  H  H30  1  0.74292434  0.57352086  0.39324223  1
  H  H31  1  0.85720824  0.65552776  0.33966153  1
  H  H32  1  0.75229439  0.88372082  0.40890895  1
  H  H33  1  0.73933803  0.95697831  0.62527669  1
  H  H34  1  0.73907680  0.65600206  0.80952660  1
  H  H35  1  0.75677197  0.56484122  0.62435862  1
  Pb  Pb36  1  0.99076757  0.00022873  0.01349059  1
  Pb  Pb37  1  1.00077880  0.50790369  0.98943871  1
  Pb  Pb38  1  0.49064575  0.00871935  0.98918955  1
  Pb  Pb39  1  0.49099455  0.49625462  0.01477596  1
  C  C40  1  0.27432169  0.33695457  0.62144497  1
  C  C41  1  0.25266950  0.28285186  0.50411235  1
  C  C42  1  0.25174622  0.17050980  0.49909355  1
  C  C43  1  0.23076626  0.12919083  0.38343950  1
  C  C44  1  0.23318843  0.34648780  0.39186597  1
  C  C45  1  0.34606484  0.73374206  0.62841033  1
  C  C46  1  0.28913245  0.74897260  0.50904704  1
  C  C47  1  0.17910658  0.75240434  0.50610804  1
  C  C48  1  0.13805224  0.75951594  0.38540570  1
  C  C49  1  0.35090530  0.75322575  0.38944234  1
  C  C50  1  0.66324604  0.21997503  0.37659594  1
  C  C51  1  0.71739674  0.24035700  0.49336044  1
  C  C52  1  0.82748948  0.24069816  0.49726129  1
  C  C53  1  0.86838000  0.26134994  0.61282454  1
  C  C54  1  0.65507037  0.25893417  0.60724835  1
  C  C55  1  0.77143360  0.65842868  0.37335257  1
  C  C56  1  0.75567670  0.71561963  0.49325646  1
  C  C57  1  0.74998074  0.82781070  0.49629312  1
  C  C58  1  0.74221854  0.87001808  0.61699508  1
  C  C59  1  0.75284282  0.65302260  0.61236467  1
  I  I60  1  0.25409167  0.06436050  0.97607171  1
  I  I61  1  0.24723416  0.45060891  0.98846869  1
  I  I62  1  0.74873663  0.93404641  0.03641041  1
  I  I63  1  0.74578919  0.53957466  0.01125943  1
  I  I64  1  0.93970922  0.24893175  0.03961986  1
  I  I65  1  0.07241697  0.75456950  0.95072857  1
  I  I66  1  0.55717992  0.25190371  0.01212016  1
  I  I67  1  0.46544560  0.75074089  0.99012932  1
  I  I68  1  0.03670640  0.04097379  0.69924761  1
  I  I69  1  0.96145511  0.98466786  0.32548690  1
  I  I70  1  0.02931848  0.50723598  0.67731453  1
  I  I71  1  0.99240724  0.48602309  0.29513186  1
  I  I72  1  0.48628316  0.02491377  0.67033857  1
  I  I73  1  0.48446625  0.98794313  0.29286793  1
  I  I74  1  0.51753630  0.49960633  0.71449486  1
  I  I75  1  0.50397260  0.49676665  0.33061152  1
  N  N76  1  0.20808331  0.28872272  0.74050982  1
  N  N77  1  0.21272311  0.19167445  0.27779837  1
  N  N78  1  0.21547045  0.29764811  0.28731249  1
  N  N79  1  0.30355724  0.79630481  0.73628853  1
  N  N80  1  0.19867313  0.76338333  0.27332365  1
  N  N81  1  0.30269205  0.75942384  0.28130730  1
  N  N82  1  0.71336434  0.28486687  0.25742341  1
  N  N83  1  0.80745811  0.27872242  0.71994960  1
  N  N84  1  0.70327785  0.27578388  0.71157127  1
  N  N85  1  0.71569809  0.70658498  0.26339348  1
  N  N86  1  0.73788281  0.80864845  0.72874769  1
  N  N87  1  0.74361417  0.70256715  0.72058622  1
