# generated using pymatgen
data_H8PbC4(IN)4
_symmetry_space_group_name_H-M   'P 1'
_cell_length_a   12.13019440
_cell_length_b   12.12341835
_cell_length_c   10.47485863
_cell_angle_alpha   90.60999890
_cell_angle_beta   91.56022134
_cell_angle_gamma   90.96026432
_symmetry_Int_Tables_number   1
_chemical_formula_structural   H8PbC4(IN)4
_chemical_formula_sum   'H32 Pb4 C16 I16 N16'
_cell_volume   1539.54429542
_cell_formula_units_Z   4
loop_
 _symmetry_equiv_pos_site_id
 _symmetry_equiv_pos_as_xyz
  1  'x, y, z'
loop_
 _atom_site_type_symbol
 _atom_site_label
 _atom_site_symmetry_multiplicity
 _atom_site_fract_x
 _atom_site_fract_y
 _atom_site_fract_z
 _atom_site_occupancy
  H  H0  1  0.26311027  0.21816320  0.83340307  1
  H  H1  1  0.18562575  0.14413367  0.72525986  1
  H  H2  1  0.32383008  0.14691453  0.71675909  1
  H  H3  1  0.32281231  0.34949928  0.67929815  1
  H  H4  1  0.17720101  0.34454597  0.68214197  1
  H  H5  1  0.24597360  0.43753071  0.44871521  1
  H  H6  1  0.25195351  0.20061716  0.17647891  1
  H  H7  1  0.24564924  0.05264878  0.32327644  1
  H  H8  1  0.22022634  0.74252312  0.83320237  1
  H  H9  1  0.15434714  0.82640301  0.72688725  1
  H  H10  1  0.14233839  0.68735537  0.71413636  1
  H  H11  1  0.34467759  0.67504760  0.68099267  1
  H  H12  1  0.35070271  0.82188520  0.68144659  1
  H  H13  1  0.43752340  0.75044179  0.45144675  1
  H  H14  1  0.20033318  0.73476592  0.17570666  1
  H  H15  1  0.05246812  0.74470271  0.32035862  1
  H  H16  1  0.77879778  0.25380135  0.17034295  1
  H  H17  1  0.85714874  0.31671141  0.28397956  1
  H  H18  1  0.84883731  0.17694252  0.27849575  1
  H  H19  1  0.65164328  0.17842433  0.32397994  1
  H  H20  1  0.65526656  0.32514177  0.32267456  1
  H  H21  1  0.56375322  0.25390807  0.55197759  1
  H  H22  1  0.79877292  0.26122651  0.82985293  1
  H  H23  1  0.94791850  0.25529930  0.68613184  1
  H  H24  1  0.73468113  0.78049227  0.17204971  1
  H  H25  1  0.67591566  0.85410876  0.28751180  1
  H  H26  1  0.81415862  0.85562424  0.27703140  1
  H  H27  1  0.82204371  0.65560886  0.32315762  1
  H  H28  1  0.67653195  0.65104860  0.32676204  1
  H  H29  1  0.75902407  0.56313588  0.55598884  1
  H  H30  1  0.74252772  0.79696869  0.82976366  1
  H  H31  1  0.74942152  0.94689356  0.68412895  1
  Pb  Pb32  1  0.99570946  0.99631618  0.98748313  1
  Pb  Pb33  1  1.00025453  0.49779467  0.98591290  1
  Pb  Pb34  1  0.49673343  0.99325883  0.98707378  1
  Pb  Pb35  1  0.49770148  0.49393140  0.98328888  1
  C  C36  1  0.24974805  0.29516265  0.65709095  1
  C  C37  1  0.24637923  0.26632411  0.51862632  1
  C  C38  1  0.24610681  0.34988782  0.42469043  1
  C  C39  1  0.24562648  0.13722150  0.35968281  1
  C  C40  1  0.29636551  0.74963750  0.65770760  1
  C  C41  1  0.26643501  0.74906793  0.51912516  1
  C  C42  1  0.34976202  0.74814308  0.42646563  1
  C  C43  1  0.13699652  0.74474142  0.35817791  1
  C  C44  1  0.70509745  0.25172802  0.34705894  1
  C  C45  1  0.73532816  0.25325273  0.48550198  1
  C  C46  1  0.65135454  0.25455328  0.57769710  1
  C  C47  1  0.86359191  0.25560813  0.64763005  1
  C  C48  1  0.74998211  0.70547684  0.34893580  1
  C  C49  1  0.75403993  0.73465910  0.48709788  1
  C  C50  1  0.75671837  0.65056914  0.58066270  1
  C  C51  1  0.75163691  0.86255358  0.64710313  1
  I  I52  1  0.24458398  0.94004044  0.03966516  1
  I  I53  1  0.25111846  0.58527469  -0.00044215  1
  I  I54  1  0.74645267  0.06847797  0.96927780  1
  I  I55  1  0.74823059  0.41994053  -0.00185292  1
  I  I56  1  0.06880263  0.24807059  0.98383328  1
  I  I57  1  0.93476208  0.74544181  0.02537536  1
  I  I58  1  0.42223762  0.24358985  0.01716717  1
  I  I59  1  0.58284003  0.74652302  0.98290350  1
  I  I60  1  0.03231904  0.99279043  0.68286303  1
  I  I61  1  0.96925194  0.00835203  0.29527933  1
  I  I62  1  0.01877246  0.51629351  0.67842065  1
  I  I63  1  0.98876154  0.48404732  0.29326408  1
  I  I64  1  0.47421991  0.01129302  0.67921374  1
  I  I65  1  0.52592393  0.99065922  0.29384290  1
  I  I66  1  0.48692276  0.50017617  0.67255348  1
  I  I67  1  0.51322528  0.50393254  0.28707091  1
  N  N68  1  0.25535228  0.19545316  0.73748318  1
  N  N69  1  0.24734187  0.32506330  0.30141137  1
  N  N70  1  0.24723639  0.21811117  0.27322992  1
  N  N71  1  0.24575938  0.15970416  0.48413961  1
  N  N72  1  0.19739726  0.75273742  0.73756154  1
  N  N73  1  0.32461868  0.74376499  0.30289642  1
  N  N74  1  0.21762822  0.74187668  0.27305764  1
  N  N75  1  0.15978315  0.74849487  0.48308069  1
  N  N76  1  0.80334220  0.24912299  0.26587341  1
  N  N77  1  0.67563585  0.25678937  0.70132826  1
  N  N78  1  0.78252243  0.25715174  0.73210237  1
  N  N79  1  0.84170817  0.25339546  0.52239518  1
  N  N80  1  0.74400502  0.80448738  0.26741906  1
  N  N81  1  0.75441504  0.67442938  0.70383196  1
  N  N82  1  0.75173467  0.78123743  0.73300055  1
  N  N83  1  0.75219436  0.84099219  0.52240134  1
