# generated using pymatgen
data_H8PbC5I4N3F
_symmetry_space_group_name_H-M   'P 1'
_cell_length_a   12.09185334
_cell_length_b   12.05800477
_cell_length_c   11.04377227
_cell_angle_alpha   89.47516942
_cell_angle_beta   89.31331676
_cell_angle_gamma   90.03748576
_symmetry_Int_Tables_number   1
_chemical_formula_structural   H8PbC5I4N3F
_chemical_formula_sum   'H32 Pb4 C20 I16 N12 F4'
_cell_volume   1610.03837104
_cell_formula_units_Z   4
loop_
 _symmetry_equiv_pos_site_id
 _symmetry_equiv_pos_as_xyz
  1  'x, y, z'
loop_
 _atom_site_type_symbol
 _atom_site_label
 _atom_site_symmetry_multiplicity
 _atom_site_fract_x
 _atom_site_fract_y
 _atom_site_fract_z
 _atom_site_occupancy
  H  H0  1  0.31548795  0.34859304  0.71301380  1
  H  H1  1  0.24808023  0.26800545  0.81544599  1
  H  H2  1  0.17684084  0.34602884  0.71519828  1
  H  H3  1  0.32078262  0.14628541  0.66591978  1
  H  H4  1  0.17486391  0.14680725  0.66622024  1
  H  H5  1  0.24889525  0.45183266  0.33654376  1
  H  H6  1  0.24802995  0.31605103  0.18837353  1
  H  H7  1  0.24849982  0.12119728  0.22848242  1
  H  H8  1  0.34517320  0.68123697  0.71468969  1
  H  H9  1  0.26712278  0.75134779  0.81550786  1
  H  H10  1  0.34667746  0.82096391  0.71363320  1
  H  H11  1  0.14698792  0.67795309  0.66700536  1
  H  H12  1  0.14649110  0.82471390  0.66572091  1
  H  H13  1  0.45088412  0.75222563  0.33617913  1
  H  H14  1  0.31554029  0.75122229  0.18842288  1
  H  H15  1  0.12102417  0.75139685  0.22912352  1
  H  H16  1  0.65331310  0.17945031  0.28643107  1
  H  H17  1  0.73286995  0.24896700  0.18453239  1
  H  H18  1  0.65493229  0.31918485  0.28539415  1
  H  H19  1  0.85351834  0.17549433  0.33420956  1
  H  H20  1  0.85312567  0.32225999  0.33304859  1
  H  H21  1  0.54923420  0.24770638  0.66384663  1
  H  H22  1  0.68458982  0.24845212  0.81158101  1
  H  H23  1  0.87910790  0.24848641  0.77087210  1
  H  H24  1  0.82292381  0.65405804  0.28485372  1
  H  H25  1  0.75176914  0.73203922  0.18451107  1
  H  H26  1  0.68429242  0.65156480  0.28696394  1
  H  H27  1  0.82496369  0.85334550  0.33363844  1
  H  H28  1  0.67903582  0.85388621  0.33402190  1
  H  H29  1  0.75089187  0.54823609  0.66320193  1
  H  H30  1  0.75186812  0.68397250  0.81146756  1
  H  H31  1  0.75160423  0.87882446  0.77148671  1
  Pb  Pb32  1  0.00071577  0.99940942  0.00016381  1
  Pb  Pb33  1  0.99931135  0.49935532  0.99998372  1
  Pb  Pb34  1  0.49994503  0.99908625  0.00020108  1
  Pb  Pb35  1  0.50014209  0.49895260  0.99976285  1
  C  C36  1  0.24833191  0.19866750  0.64482969  1
  C  C37  1  0.24912027  0.23116062  0.51415144  1
  C  C38  1  0.24898003  0.36556007  0.36638878  1
  C  C39  1  0.24875038  0.17857698  0.30422589  1
  C  C40  1  0.24943728  0.14888171  0.42554676  1
  C  C41  1  0.19841176  0.75154785  0.64511684  1
  C  C42  1  0.23102352  0.75165556  0.51448215  1
  C  C43  1  0.36492534  0.75217244  0.36630539  1
  C  C44  1  0.17827591  0.75199600  0.30466405  1
  C  C45  1  0.14890419  0.75183313  0.42618130  1
  C  C46  1  0.80166462  0.24868062  0.35488739  1
  C  C47  1  0.76907711  0.24850125  0.48551885  1
  C  C48  1  0.63519603  0.24783950  0.63370447  1
  C  C49  1  0.82184624  0.24798649  0.69533328  1
  C  C50  1  0.85120965  0.24825785  0.57381805  1
  C  C51  1  0.75150073  0.80150384  0.35508384  1
  C  C52  1  0.75077355  0.76900743  0.48575204  1
  C  C53  1  0.75085945  0.63452791  0.63341524  1
  C  C54  1  0.75127238  0.82148606  0.69569488  1
  C  C55  1  0.75058410  0.85124374  0.57441015  1
  I  I56  1  0.25049795  0.08923987  0.97481742  1
  I  I57  1  0.24980675  0.42883534  0.01116266  1
  I  I58  1  0.74977533  0.91159879  0.02528514  1
  I  I59  1  0.74963791  0.57208090  0.98907108  1
  I  I60  1  0.91172781  0.24997763  0.02702335  1
  I  I61  1  0.08846401  0.74945945  0.97310936  1
  I  I62  1  0.57311848  0.24963736  0.99117625  1
  I  I63  1  0.42736521  0.74860127  0.00904316  1
  I  I64  1  0.99453277  0.00217639  0.70989694  1
  I  I65  1  0.00564226  0.99797102  0.29059074  1
  I  I66  1  0.01663213  0.48317573  0.70834606  1
  I  I67  1  0.98293101  0.51701618  0.29150019  1
  I  I68  1  0.49017534  0.98105867  0.70743664  1
  I  I69  1  0.50987906  0.01892154  0.29293114  1
  I  I70  1  0.47053954  0.50242415  0.70604786  1
  I  I71  1  0.52948653  0.49724686  0.29364343  1
  N  N72  1  0.24737123  0.29600296  0.72602780  1
  N  N73  1  0.24928447  0.33939149  0.48267895  1
  N  N74  1  0.24836959  0.28819757  0.27885020  1
  N  N75  1  0.29536696  0.75139936  0.72609281  1
  N  N76  1  0.33892709  0.75174251  0.48269295  1
  N  N77  1  0.28773799  0.75174397  0.27892438  1
  N  N78  1  0.70468214  0.24895502  0.27396178  1
  N  N79  1  0.66117419  0.24839157  0.51732435  1
  N  N80  1  0.71237900  0.24818859  0.72108088  1
  N  N81  1  0.75242177  0.70412915  0.27395254  1
  N  N82  1  0.75052319  0.66075963  0.51715760  1
  N  N83  1  0.75156391  0.71185081  0.72100526  1
  F  F84  1  0.25054621  0.04161631  0.45861578  1
  F  F85  1  0.04216139  0.75173795  0.46039386  1
  F  F86  1  0.95795473  0.24833415  0.53959138  1
  F  F87  1  0.74957787  0.95852384  0.54140481  1
