# generated using pymatgen
data_H8PbC5I4N3F
_symmetry_space_group_name_H-M   'P 1'
_cell_length_a   12.51719452
_cell_length_b   12.35784076
_cell_length_c   10.47426157
_cell_angle_alpha   87.18468523
_cell_angle_beta   88.06765281
_cell_angle_gamma   89.41672173
_symmetry_Int_Tables_number   1
_chemical_formula_structural   H8PbC5I4N3F
_chemical_formula_sum   'H32 Pb4 C20 I16 N12 F4'
_cell_volume   1617.28161749
_cell_formula_units_Z   4
loop_
 _symmetry_equiv_pos_site_id
 _symmetry_equiv_pos_as_xyz
  1  'x, y, z'
loop_
 _atom_site_type_symbol
 _atom_site_label
 _atom_site_symmetry_multiplicity
 _atom_site_fract_x
 _atom_site_fract_y
 _atom_site_fract_z
 _atom_site_occupancy
  H  H0  1  0.23265513  0.23160416  0.83955148  1
  H  H1  1  0.31580929  0.16565780  0.73673321  1
  H  H2  1  0.18323210  0.15636552  0.72770875  1
  H  H3  1  0.17181750  0.35925987  0.68012288  1
  H  H4  1  0.31383231  0.35891428  0.67485431  1
  H  H5  1  0.24744617  0.44208763  0.43229227  1
  H  H6  1  0.24805485  0.37082226  0.20914608  1
  H  H7  1  0.24673846  0.17672115  0.19111439  1
  H  H8  1  0.23477535  0.73788102  0.83814820  1
  H  H9  1  0.15961894  0.68934479  0.72557625  1
  H  H10  1  0.17019186  0.82452565  0.73580015  1
  H  H11  1  0.35800427  0.82300870  0.67289407  1
  H  H12  1  0.35904424  0.67857603  0.68011074  1
  H  H13  1  0.44006481  0.74864536  0.43474292  1
  H  H14  1  0.37152129  0.74805892  0.21057716  1
  H  H15  1  0.17974072  0.74854797  0.18724629  1
  H  H16  1  0.76104304  0.26353810  0.16522152  1
  H  H17  1  0.82956140  0.17540171  0.26370511  1
  H  H18  1  0.83926174  0.31113912  0.27594926  1
  H  H19  1  0.64112736  0.31915783  0.32666908  1
  H  H20  1  0.64300314  0.17512794  0.33177877  1
  H  H21  1  0.56170728  0.24585594  0.56812978  1
  H  H22  1  0.62911888  0.25466766  0.79265796  1
  H  H23  1  0.81684838  0.26461624  0.81624546  1
  H  H24  1  0.75514972  0.77151152  0.15763221  1
  H  H25  1  0.81688044  0.84302160  0.26544827  1
  H  H26  1  0.68315264  0.83912067  0.26698558  1
  H  H27  1  0.68187462  0.64361188  0.32281915  1
  H  H28  1  0.82393288  0.64108290  0.31707908  1
  H  H29  1  0.74948322  0.55842152  0.56384754  1
  H  H30  1  0.74934650  0.62812118  0.78704617  1
  H  H31  1  0.75203097  0.82235603  0.80692570  1
  Pb  Pb32  1  0.99655849  0.00795444  0.99680035  1
  Pb  Pb33  1  0.99019824  0.50616438  0.99873598  1
  Pb  Pb34  1  0.49611621  -0.00084621  0.00238010  1
  Pb  Pb35  1  0.49476712  0.49590504  0.99517821  1
  C  C36  1  0.24301844  0.30904578  0.65770660  1
  C  C37  1  0.24397093  0.27840391  0.52136478  1
  C  C38  1  0.24577765  0.35552263  0.41845140  1
  C  C39  1  0.24618659  0.31815889  0.29614922  1
  C  C40  1  0.24348818  0.14124218  0.38531494  1
  C  C41  1  0.30950875  0.75102006  0.65656818  1
  C  C42  1  0.27834585  0.75110042  0.51979173  1
  C  C43  1  0.35472417  0.74924270  0.41916877  1
  C  C44  1  0.31888529  0.74852283  0.29568563  1
  C  C45  1  0.14386297  0.74894384  0.38072547  1
  C  C46  1  0.69162978  0.24696526  0.34819989  1
  C  C47  1  0.72391455  0.24604948  0.48439804  1
  C  C48  1  0.64687668  0.24703452  0.58452001  1
  C  C49  1  0.68174558  0.25185012  0.70772908  1
  C  C50  1  0.85751620  0.25223523  0.62417260  1
  C  C51  1  0.75346312  0.69249091  0.33962205  1
  C  C52  1  0.75400571  0.72255977  0.47601663  1
  C  C53  1  0.75185469  0.64485854  0.57822632  1
  C  C54  1  0.75238542  0.68146822  0.70085363  1
  C  C55  1  0.75733818  0.85882848  0.61299205  1
  I  I56  1  0.24777583  0.01363649  0.04092209  1
  I  I57  1  0.24706996  0.51986789  0.99404076  1
  I  I58  1  0.75134095  0.98274827  0.96111956  1
  I  I59  1  0.74827736  0.44137428  0.97798912  1
  I  I60  1  0.03065864  0.26016938  0.97418363  1
  I  I61  1  0.02714414  0.75794017  0.02665667  1
  I  I62  1  0.49615494  0.24255971  0.06966808  1
  I  I63  1  0.52660638  0.74652943  0.95101155  1
  I  I64  1  0.05663779  0.98988544  0.69691152  1
  I  I65  1  0.94183650  0.01188773  0.29835936  1
  I  I66  1  0.01678248  0.54615452  0.69392190  1
  I  I67  1  0.96864848  0.46330051  0.30459273  1
  I  I68  1  0.46402399  0.03647944  0.70051194  1
  I  I69  1  0.53392707  0.96064981  0.30584395  1
  I  I70  1  0.49683224  0.48314376  0.68978608  1
  I  I71  1  0.50202643  0.51594019  0.29839341  1
  N  N72  1  0.24401730  0.21081052  0.74582829  1
  N  N73  1  0.24481685  0.20969624  0.28098244  1
  N  N74  1  0.24334056  0.17125020  0.50237100  1
  N  N75  1  0.21352678  0.75096750  0.74437117  1
  N  N76  1  0.21198595  0.74843201  0.27786285  1
  N  N77  1  0.17255505  0.75110110  0.49841150  1
  N  N78  1  0.78572284  0.24887543  0.25773076  1
  N  N79  1  0.78854869  0.25467106  0.72612312  1
  N  N80  1  0.82959587  0.24746007  0.50641186  1
  N  N81  1  0.75293824  0.79114392  0.25196650  1
  N  N82  1  0.75485773  0.78978613  0.71688511  1
  N  N83  1  0.75689058  0.82958724  0.49574874  1
  F  F84  1  0.24311178  0.03669550  0.36412473  1
  F  F85  1  0.04099678  0.74615400  0.35633297  1
  F  F86  1  0.95997785  0.25659810  0.65006608  1
  F  F87  1  0.75900549  0.96316976  0.63535906  1
