# generated using pymatgen
data_H8PbC4(IN)4
_symmetry_space_group_name_H-M   'P 1'
_cell_length_a   12.12426549
_cell_length_b   12.12872295
_cell_length_c   10.45011348
_cell_angle_alpha   89.63487329
_cell_angle_beta   89.19449810
_cell_angle_gamma   90.64428908
_symmetry_Int_Tables_number   1
_chemical_formula_structural   H8PbC4(IN)4
_chemical_formula_sum   'H32 Pb4 C16 I16 N16'
_cell_volume   1536.42681193
_cell_formula_units_Z   4
loop_
 _symmetry_equiv_pos_site_id
 _symmetry_equiv_pos_as_xyz
  1  'x, y, z'
loop_
 _atom_site_type_symbol
 _atom_site_label
 _atom_site_symmetry_multiplicity
 _atom_site_fract_x
 _atom_site_fract_y
 _atom_site_fract_z
 _atom_site_occupancy
  H  H0  1  0.24685845  0.30142971  0.82839802  1
  H  H1  1  0.31902289  0.37601773  0.71813833  1
  H  H2  1  0.17921145  0.37337504  0.71638649  1
  H  H3  1  0.17913427  0.17240188  0.67647918  1
  H  H4  1  0.32554537  0.17664111  0.67485467  1
  H  H5  1  0.25022608  0.08323623  0.44106209  1
  H  H6  1  0.24723047  0.15449288  0.20875376  1
  H  H7  1  0.24641586  0.34713671  0.17957962  1
  H  H8  1  0.30028065  0.75463546  0.82918843  1
  H  H9  1  0.37077831  0.67866905  0.72071068  1
  H  H10  1  0.37607695  0.81887501  0.71493229  1
  H  H11  1  0.17431545  0.82324834  0.67601593  1
  H  H12  1  0.17321445  0.67677459  0.67689491  1
  H  H13  1  0.08339690  0.75056988  0.44246677  1
  H  H14  1  0.15543622  0.75194443  0.21006539  1
  H  H15  1  0.34804894  0.75146604  0.17979201  1
  H  H16  1  0.70041041  0.24365770  0.16869487  1
  H  H17  1  0.62487771  0.18060023  0.28425086  1
  H  H18  1  0.63032308  0.32070922  0.27716607  1
  H  H19  1  0.82751975  0.32295637  0.32078767  1
  H  H20  1  0.82667849  0.17639895  0.32216168  1
  H  H21  1  0.91727077  0.24985227  0.55554006  1
  H  H22  1  0.84510919  0.24870806  0.78779785  1
  H  H23  1  0.65223311  0.24830938  0.81766675  1
  H  H24  1  0.75357854  0.69936488  0.16901110  1
  H  H25  1  0.82055815  0.62795699  0.28235522  1
  H  H26  1  0.68098927  0.62510333  0.27954901  1
  H  H27  1  0.67421317  0.82462701  0.32221361  1
  H  H28  1  0.82067117  0.82864218  0.32156754  1
  H  H29  1  0.74863324  0.91735728  0.55714921  1
  H  H30  1  0.74990238  0.84533001  0.78907389  1
  H  H31  1  0.75092090  0.65214740  0.81723731  1
  Pb  Pb32  1  -0.00017665  0.99772352  0.00825251  1
  Pb  Pb33  1  0.00119912  0.49917309  0.00743117  1
  Pb  Pb34  1  0.50115029  0.99944001  0.00555453  1
  Pb  Pb35  1  0.50070786  0.49750131  0.00490911  1
  C  C36  1  0.25172284  0.22503265  0.65168799  1
  C  C37  1  0.25149377  0.25278655  0.51196862  1
  C  C38  1  0.25067862  0.17088705  0.41863701  1
  C  C39  1  0.24917544  0.20729419  0.29272285  1
  C  C40  1  0.22441163  0.75032351  0.65256999  1
  C  C41  1  0.25289898  0.75002815  0.51275891  1
  C  C42  1  0.17118538  0.75043948  0.41988960  1
  C  C43  1  0.20797422  0.75093935  0.29379490  1
  C  C44  1  0.77652195  0.24937045  0.34520560  1
  C  C45  1  0.74794642  0.24989630  0.48501212  1
  C  C46  1  0.82945275  0.24989258  0.57805132  1
  C  C47  1  0.79254908  0.24944393  0.70405659  1
  C  C48  1  0.74789072  0.77614762  0.34572265  1
  C  C49  1  0.74758906  0.74815740  0.48540992  1
  C  C50  1  0.74807308  0.82962387  0.57913960  1
  C  C51  1  0.74869881  0.79270225  0.70495796  1
  I  I52  1  0.24933869  0.91977838  0.99992722  1
  I  I53  1  0.25144218  0.57151395  0.01720822  1
  I  I54  1  0.75058550  0.08132531  0.99917852  1
  I  I55  1  0.74986383  0.42980986  0.98168665  1
  I  I56  1  0.07862152  0.24972325  0.00832229  1
  I  I57  1  0.92027835  0.74771305  0.98967678  1
  I  I58  1  0.42569289  0.24766089  0.98916064  1
  I  I59  1  0.57122173  0.74932598  0.01130279  1
  I  I60  1  0.99937513  0.01152394  0.70172013  1
  I  I61  1  0.00035433  0.99000219  0.31612260  1
  I  I62  1  0.01793527  0.49055012  0.70000519  1
  I  I63  1  0.98173217  0.51281073  0.31436223  1
  I  I64  1  0.49976065  0.98192037  0.69852679  1
  I  I65  1  0.50311399  0.01813213  0.31220097  1
  I  I66  1  0.47610445  0.50900976  0.69812191  1
  I  I67  1  0.52645508  0.48950187  0.31015928  1
  N  N68  1  0.24938276  0.32480577  0.73279172  1
  N  N69  1  0.24922911  0.31628838  0.27176363  1
  N  N70  1  0.25085809  0.39461156  0.36196840  1
  N  N71  1  0.25159410  0.36167435  0.48062369  1
  N  N72  1  0.32382882  0.75044706  0.73361508  1
  N  N73  1  0.31707653  0.75070912  0.27235010  1
  N  N74  1  0.39512157  0.74995619  0.36203281  1
  N  N75  1  0.36186355  0.74951640  0.48099549  1
  N  N76  1  0.67707369  0.24883015  0.26431104  1
  N  N77  1  0.68336893  0.24933723  0.72532237  1
  N  N78  1  0.60542932  0.24957835  0.63535554  1
  N  N79  1  0.63885076  0.24999492  0.51656981  1
  N  N80  1  0.75052992  0.67628682  0.26476891  1
  N  N81  1  0.74867373  0.68363280  0.72534958  1
  N  N82  1  0.74758934  0.60565609  0.63458039  1
  N  N83  1  0.74728534  0.63907767  0.51624503  1
