# generated using pymatgen
data_H9PbC5I4N3
_symmetry_space_group_name_H-M   'P 1'
_cell_length_a   12.43930476
_cell_length_b   12.43557710
_cell_length_c   10.21147271
_cell_angle_alpha   88.24922470
_cell_angle_beta   86.54425649
_cell_angle_gamma   90.22882030
_symmetry_Int_Tables_number   1
_chemical_formula_structural   H9PbC5I4N3
_chemical_formula_sum   'H36 Pb4 C20 I16 N12'
_cell_volume   1575.97674185
_cell_formula_units_Z   4
loop_
 _symmetry_equiv_pos_site_id
 _symmetry_equiv_pos_as_xyz
  1  'x, y, z'
loop_
 _atom_site_type_symbol
 _atom_site_label
 _atom_site_symmetry_multiplicity
 _atom_site_fract_x
 _atom_site_fract_y
 _atom_site_fract_z
 _atom_site_occupancy
  H  H0  1  0.32150469  0.39335432  0.70945526  1
  H  H1  1  0.18555121  0.39662361  0.70534217  1
  H  H2  1  0.24209179  0.34043907  0.83498613  1
  H  H3  1  0.32174694  0.19639052  0.70865884  1
  H  H4  1  0.17934889  0.19620303  0.71917850  1
  H  H5  1  0.24840957  0.07038748  0.51645363  1
  H  H6  1  0.24428227  0.08147086  0.26725311  1
  H  H7  1  0.24655083  0.27022571  0.16007394  1
  H  H8  1  0.24773354  0.41641945  0.29458395  1
  H  H9  1  0.39031653  0.69052168  0.71719537  1
  H  H10  1  0.39047745  0.82826019  0.70652844  1
  H  H11  1  0.33482075  0.76479159  0.83988044  1
  H  H12  1  0.19398121  0.68432694  0.72212218  1
  H  H13  1  0.19158940  0.82742649  0.71578864  1
  H  H14  1  0.07106626  0.75696279  0.52294393  1
  H  H15  1  0.08695467  0.75108353  0.27306713  1
  H  H16  1  0.27701430  0.74824784  0.16546787  1
  H  H17  1  0.42108375  0.75361116  0.29893101  1
  H  H18  1  0.60802197  0.17194807  0.29306192  1
  H  H19  1  0.60820057  0.30974814  0.28504439  1
  H  H20  1  0.66235979  0.23759083  0.16047389  1
  H  H21  1  0.80667078  0.17224798  0.28353053  1
  H  H22  1  0.80497020  0.31545020  0.27765532  1
  H  H23  1  0.92908555  0.24262944  0.47506007  1
  H  H24  1  0.91521728  0.24728958  0.72450781  1
  H  H25  1  0.72534991  0.24964525  0.83469923  1
  H  H26  1  0.58066908  0.24591218  0.70317698  1
  H  H27  1  0.81710128  0.60395925  0.29179224  1
  H  H28  1  0.68099549  0.60714285  0.29125656  1
  H  H29  1  0.75771896  0.66030483  0.16405478  1
  H  H30  1  0.82375850  0.80383723  0.28108440  1
  H  H31  1  0.68136547  0.80469351  0.29034887  1
  H  H32  1  0.75120033  0.92989946  0.48356172  1
  H  H33  1  0.75640707  0.91893238  0.73266263  1
  H  H34  1  0.75836029  0.73025606  0.83968314  1
  H  H35  1  0.75426875  0.58398358  0.70526541  1
  Pb  Pb36  1  0.99211477  0.00325843  0.99979154  1
  Pb  Pb37  1  0.99350500  0.49591067  0.99872707  1
  Pb  Pb38  1  0.48909599  0.00046898  0.00102499  1
  Pb  Pb39  1  0.49343312  0.50480370  0.00247609  1
  C  C40  1  0.25084598  0.24079478  0.67695033  1
  C  C41  1  0.24967306  0.24416208  0.53023807  1
  C  C42  1  0.24809148  0.14702077  0.46192300  1
  C  C43  1  0.24608813  0.15269099  0.32651083  1
  C  C44  1  0.24701941  0.25478231  0.26562400  1
  C  C45  1  0.23797134  0.75669394  0.68290369  1
  C  C46  1  0.24472513  0.75503172  0.53588909  1
  C  C47  1  0.14865781  0.75436398  0.46792391  1
  C  C48  1  0.15676341  0.75131978  0.33257397  1
  C  C49  1  0.26014112  0.74952839  0.27101259  1
  C  C50  1  0.76077870  0.24317196  0.31683565  1
  C  C51  1  0.75518249  0.24456682  0.46388777  1
  C  C52  1  0.85180764  0.24499594  0.53077293  1
  C  C53  1  0.84472884  0.24742866  0.66624703  1
  C  C54  1  0.74184805  0.24897682  0.72904367  1
  C  C55  1  0.75171632  0.75971045  0.32261502  1
  C  C56  1  0.75205143  0.75614595  0.46948343  1
  C  C57  1  0.75269845  0.85325840  0.53796318  1
  C  C58  1  0.75558804  0.84768499  0.67331961  1
  C  C59  1  0.75638629  0.74565800  0.73423003  1
  I  I60  1  0.24383970  0.93348981  0.00731334  1
  I  I61  1  0.24336635  0.53188020  0.06065166  1
  I  I62  1  0.74427582  0.05683498  0.98927135  1
  I  I63  1  0.74624446  0.46949216  0.94123436  1
  I  I64  1  0.06895713  0.24836829  0.98956194  1
  I  I65  1  0.94873572  0.74618752  0.01570014  1
  I  I66  1  0.46257654  0.25460947  0.95232672  1
  I  I67  1  0.54714821  0.75126743  0.04552160  1
  I  I68  1  0.03473192  0.00175968  0.68789243  1
  I  I69  1  0.96260041  0.00121572  0.31289842  1
  I  I70  1  0.03408468  0.51894744  0.68638804  1
  I  I71  1  0.96321934  0.47682330  0.31315853  1
  I  I72  1  0.48947114  0.99853999  0.68937352  1
  I  I73  1  0.50767232  0.00212092  0.31270631  1
  I  I74  1  0.48087985  0.52087378  0.68910317  1
  I  I75  1  0.51832084  0.48225064  0.31282925  1
  N  N76  1  0.25087745  0.34914533  0.73370101  1
  N  N77  1  0.24797065  0.34108825  0.34021147  1
  N  N78  1  0.24908363  0.34067194  0.47007600  1
  N  N79  1  0.34503219  0.75973984  0.73909020  1
  N  N80  1  0.34504009  0.75182317  0.34478088  1
  N  N81  1  0.34216030  0.75428522  0.47507377  1
  N  N82  1  0.65327685  0.24087787  0.26147392  1
  N  N83  1  0.65635673  0.24737240  0.65614806  1
  N  N84  1  0.65818254  0.24541403  0.52591269  1
  N  N85  1  0.75117364  0.65152395  0.26533369  1
  N  N86  1  0.75458340  0.65933381  0.65965936  1
  N  N87  1  0.75271547  0.65968260  0.52981023  1
