# generated using pymatgen
data_H8PbC4(IN)4
_symmetry_space_group_name_H-M   'P 1'
_cell_length_a   12.14310639
_cell_length_b   12.08873998
_cell_length_c   10.63438651
_cell_angle_alpha   90.00145264
_cell_angle_beta   89.99706792
_cell_angle_gamma   89.22683430
_symmetry_Int_Tables_number   1
_chemical_formula_structural   H8PbC4(IN)4
_chemical_formula_sum   'H32 Pb4 C16 I16 N16'
_cell_volume   1560.93110184
_cell_formula_units_Z   4
loop_
 _symmetry_equiv_pos_site_id
 _symmetry_equiv_pos_as_xyz
  1  'x, y, z'
loop_
 _atom_site_type_symbol
 _atom_site_label
 _atom_site_symmetry_multiplicity
 _atom_site_fract_x
 _atom_site_fract_y
 _atom_site_fract_z
 _atom_site_occupancy
  H  H0  1  0.21230680  0.25207943  0.83381577  1
  H  H1  1  0.14269460  0.17727532  0.72646809  1
  H  H2  1  0.13802995  0.31902023  0.72388804  1
  H  H3  1  0.33701603  0.32441606  0.68288252  1
  H  H4  1  0.33982131  0.17608939  0.68256219  1
  H  H5  1  0.25598529  0.07007744  0.49720366  1
  H  H6  1  0.21371401  0.24996861  0.17986022  1
  H  H7  1  0.25336381  0.42952557  0.49634729  1
  H  H8  1  0.24712518  0.78693997  0.83378890  1
  H  H9  1  0.18205459  0.86400141  0.72434627  1
  H  H10  1  0.32186941  0.85852355  0.72764807  1
  H  H11  1  0.32258591  0.66028550  0.68106056  1
  H  H12  1  0.17554835  0.66319255  0.68143353  1
  H  H13  1  0.07063740  0.74691319  0.49497220  1
  H  H14  1  0.24967775  0.78530320  0.17855697  1
  H  H15  1  0.42844224  0.74574851  0.49640618  1
  H  H16  1  0.74710132  0.28691132  0.16620657  1
  H  H17  1  0.82185933  0.35851279  0.27232286  1
  H  H18  1  0.68204731  0.36399219  0.27565824  1
  H  H19  1  0.67554561  0.16318280  0.31858985  1
  H  H20  1  0.82258428  0.16028955  0.31893664  1
  H  H21  1  0.92842138  0.24575895  0.50359104  1
  H  H22  1  0.74964581  0.28532722  0.82144854  1
  H  H23  1  0.57062134  0.24693362  0.50506264  1
  H  H24  1  0.71230966  0.75206348  0.16621037  1
  H  H25  1  0.63802252  0.81902186  0.27614565  1
  H  H26  1  0.64269944  0.67727313  0.27356574  1
  H  H27  1  0.83982059  0.67609895  0.31742743  1
  H  H28  1  0.83700824  0.82442709  0.31712051  1
  H  H29  1  0.75333240  0.92953822  0.50366650  1
  H  H30  1  0.71375747  0.74997165  0.82016569  1
  H  H31  1  0.75600432  0.57008892  0.50277804  1
  Pb  Pb32  1  0.99779891  0.99727774  0.00620242  1
  Pb  Pb33  1  0.00250702  0.50096253  0.00078418  1
  Pb  Pb34  1  0.50267162  0.00095913  0.99916831  1
  Pb  Pb35  1  0.49766575  0.49733582  0.99368462  1
  C  C36  1  0.28982432  0.25003394  0.65902258  1
  C  C37  1  0.26134244  0.24981180  0.52173258  1
  C  C38  1  0.24929189  0.15153803  0.45358762  1
  C  C39  1  0.24789604  0.34799717  0.45310826  1
  C  C40  1  0.24926774  0.71125905  0.65809139  1
  C  C41  1  0.24947687  0.74016253  0.52103749  1
  C  C42  1  0.15186505  0.75259599  0.45192720  1
  C  C43  1  0.34732421  0.75195668  0.45274042  1
  C  C44  1  0.74927537  0.21125867  0.34192070  1
  C  C45  1  0.74944846  0.24017991  0.47897899  1
  C  C46  1  0.84733994  0.25197282  0.54725062  1
  C  C47  1  0.65186791  0.25261996  0.54809830  1
  C  C48  1  0.78982213  0.75004517  0.34097804  1
  C  C49  1  0.76134655  0.74982829  0.47825544  1
  C  C50  1  0.74788609  0.84798480  0.54691814  1
  C  C51  1  0.74930600  0.65153922  0.54641600  1
  I  I52  1  0.24959540  0.07025819  0.00585370  1
  I  I53  1  0.25143034  0.41289329  0.00441568  1
  I  I54  1  0.75154732  0.91282598  0.99554314  1
  I  I55  1  0.74947468  0.57030051  0.99418492  1
  I  I56  1  0.92858716  0.25016484  0.99627443  1
  I  I57  1  0.08619552  0.74820266  0.00132019  1
  I  I58  1  0.58617208  0.24826366  0.99868178  1
  I  I59  1  0.42850358  0.75021258  0.00373236  1
  I  I60  1  0.03372096  0.00340039  0.68519788  1
  I  I61  1  0.98756707  0.00515280  0.30238582  1
  I  I62  1  0.02263068  0.49248077  0.69455794  1
  I  I63  1  0.97587476  0.48407745  0.30982426  1
  I  I64  1  0.47591737  0.98405129  0.69016484  1
  I  I65  1  0.52265789  0.99247659  0.30540444  1
  I  I66  1  0.48756960  0.50517793  0.69753245  1
  I  I67  1  0.53372405  0.50342629  0.31477619  1
  N  N68  1  0.18887802  0.24921264  0.73960394  1
  N  N69  1  0.23012070  0.15138602  0.32948666  1
  N  N70  1  0.22343639  0.24959500  0.27724391  1
  N  N71  1  0.22867213  0.34793977  0.32912325  1
  N  N72  1  0.25035705  0.81136917  0.74002746  1
  N  N73  1  0.15186586  0.77072366  0.32775484  1
  N  N74  1  0.24985604  0.77620351  0.27593474  1
  N  N75  1  0.34758302  0.77003543  0.32852773  1
  N  N76  1  0.75034067  0.31135937  0.25997320  1
  N  N77  1  0.84756031  0.27005444  0.67147260  1
  N  N78  1  0.74985082  0.27623066  0.72406245  1
  N  N79  1  0.65183401  0.27075153  0.67225660  1
  N  N80  1  0.68887598  0.74920022  0.26042033  1
  N  N81  1  0.72868280  0.84793670  0.67090312  1
  N  N82  1  0.72346455  0.74959102  0.72279439  1
  N  N83  1  0.73014807  0.65140219  0.67052443  1
