# generated using pymatgen
data_H8PbC5I4N3F
_symmetry_space_group_name_H-M   'P 1'
_cell_length_a   12.24438107
_cell_length_b   12.08077354
_cell_length_c   10.65760355
_cell_angle_alpha   91.62212287
_cell_angle_beta   92.18452584
_cell_angle_gamma   88.77761205
_symmetry_Int_Tables_number   1
_chemical_formula_structural   H8PbC5I4N3F
_chemical_formula_sum   'H32 Pb4 C20 I16 N12 F4'
_cell_volume   1574.38893488
_cell_formula_units_Z   4
loop_
 _symmetry_equiv_pos_site_id
 _symmetry_equiv_pos_as_xyz
  1  'x, y, z'
loop_
 _atom_site_type_symbol
 _atom_site_label
 _atom_site_symmetry_multiplicity
 _atom_site_fract_x
 _atom_site_fract_y
 _atom_site_fract_z
 _atom_site_occupancy
  H  H0  1  0.36635688  0.24288338  0.74832652  1
  H  H1  1  0.25544305  0.22600569  0.83224804  1
  H  H2  1  0.29184879  0.12949389  0.72462455  1
  H  H3  1  0.22525852  0.36467130  0.67606154  1
  H  H4  1  0.13128204  0.25420521  0.66733296  1
  H  H5  1  0.24421063  0.43039725  0.47210395  1
  H  H6  1  0.29669119  0.22809058  0.17324595  1
  H  H7  1  0.28073892  0.06036032  0.28125548  1
  H  H8  1  0.25803973  0.62769676  0.74101340  1
  H  H9  1  0.23056142  0.73729002  0.83689856  1
  H  H10  1  0.13952617  0.70113306  0.72296538  1
  H  H11  1  0.36893032  0.77131931  0.68618750  1
  H  H12  1  0.25764765  0.86797887  0.68741894  1
  H  H13  1  0.43334798  0.76496626  0.47993855  1
  H  H14  1  0.23384322  0.72612615  0.17408514  1
  H  H15  1  0.06964996  0.73072996  0.28304860  1
  H  H16  1  0.74520299  0.13324274  0.24076191  1
  H  H17  1  0.77197109  0.25005786  0.16492419  1
  H  H18  1  0.86005856  0.20171435  0.27722274  1
  H  H19  1  0.62739353  0.26639144  0.31918638  1
  H  H20  1  0.72934025  0.36842924  0.32367968  1
  H  H21  1  0.56673803  0.25586921  0.52507835  1
  H  H22  1  0.77082919  0.23852036  0.82792512  1
  H  H23  1  0.93442511  0.24069162  0.71604509  1
  H  H24  1  0.85637647  0.77537891  0.24730180  1
  H  H25  1  0.73740396  0.77373432  0.16402488  1
  H  H26  1  0.75919197  0.87349915  0.27352514  1
  H  H27  1  0.74699475  0.63147246  0.31844059  1
  H  H28  1  0.63228949  0.72302872  0.32443091  1
  H  H29  1  0.74558190  0.56547966  0.52551589  1
  H  H30  1  0.77501784  0.76686118  0.83085656  1
  H  H31  1  0.77539139  0.93372937  0.72015754  1
  Pb  Pb32  1  0.01474452  0.00342130  -0.00179682  1
  Pb  Pb33  1  0.98470972  0.48853472  0.00452509  1
  Pb  Pb34  1  0.50969664  0.98006802  0.99197180  1
  Pb  Pb35  1  0.48782367  0.49693641  0.01418665  1
  C  C36  1  0.21606268  0.27646687  0.65127224  1
  C  C37  1  0.24196679  0.25546463  0.51624172  1
  C  C38  1  0.25036280  0.34540072  0.43544898  1
  C  C39  1  0.27074396  0.13943316  0.33147948  1
  C  C40  1  0.25190000  0.15102419  0.45931654  1
  C  C41  1  0.28154630  0.78209376  0.66214137  1
  C  C42  1  0.26127239  0.76126837  0.52396508  1
  C  C43  1  0.34963348  0.75869540  0.44229335  1
  C  C44  1  0.14704998  0.74084529  0.33520433  1
  C  C45  1  0.15838487  0.75192723  0.46546509  1
  C  C46  1  0.71395950  0.28104082  0.34270703  1
  C  C47  1  0.73837415  0.25951338  0.47874820  1
  C  C48  1  0.65112647  0.25342344  0.56143960  1
  C  C49  1  0.85581947  0.24524940  0.66535643  1
  C  C50  1  0.84228950  0.25449664  0.53543783  1
  C  C51  1  0.72132644  0.71676817  0.34325052  1
  C  C52  1  0.74663902  0.74019063  0.48006351  1
  C  C53  1  0.75050781  0.65028427  0.56274051  1
  C  C54  1  0.76894121  0.85485626  0.66860925  1
  C  C55  1  0.75904340  0.84372984  0.53822018  1
  I  I56  1  0.26253274  0.90941936  1.00235977  1
  I  I57  1  0.23880864  0.55713086  0.02684065  1
  I  I58  1  0.75974597  0.04804059  0.96853118  1
  I  I59  1  0.74307993  0.39785600  0.00474340  1
  I  I60  1  0.10109283  0.24777245  0.99228602  1
  I  I61  1  0.95248074  0.74911370  0.99945069  1
  I  I62  1  0.44751068  0.23758731  0.01915230  1
  I  I63  1  0.60358907  0.73125647  0.99100703  1
  I  I64  1  0.02175100  0.99975658  0.70109326  1
  I  I65  1  0.99868891  0.00525181  0.30202030  1
  I  I66  1  0.00406475  0.49719351  0.70433658  1
  I  I67  1  0.96144595  0.51279605  0.30644664  1
  I  I68  1  0.49620056  0.99381385  0.69113170  1
  I  I69  1  0.54995468  0.00859765  0.29293437  1
  I  I70  1  0.42650787  0.49737381  0.69801557  1
  I  I71  1  0.50815649  0.50394535  0.30767414  1
  N  N72  1  0.28726962  0.21400328  0.74290376  1
  N  N73  1  0.26697162  0.33519498  0.31318833  1
  N  N74  1  0.27668900  0.23254856  0.26752867  1
  N  N75  1  0.22224781  0.70741992  0.74438911  1
  N  N76  1  0.33973316  0.74923986  0.31806837  1
  N  N77  1  0.23854519  0.74079157  0.27076229  1
  N  N78  1  0.77798236  0.21162091  0.25236015  1
  N  N79  1  0.66289899  0.24598503  0.68500472  1
  N  N80  1  0.76501150  0.24227708  0.73083076  1
  N  N81  1  0.77329726  0.79028262  0.25382424  1
  N  N82  1  0.76025587  0.65976836  0.68688949  1
  N  N83  1  0.76785965  0.76218705  0.73375809  1
  F  F84  1  0.24449329  0.05885689  0.52554446  1
  F  F85  1  0.06771011  0.75282823  0.53234403  1
  F  F86  1  0.93211641  0.25896970  0.46771071  1
  F  F87  1  0.76155524  0.93678348  0.47274941  1
