# generated using pymatgen
data_H12PbC7(I2N)2
_symmetry_space_group_name_H-M   'P 1'
_cell_length_a   12.87481745
_cell_length_b   12.43217233
_cell_length_c   10.70916682
_cell_angle_alpha   86.46675031
_cell_angle_beta   87.25835037
_cell_angle_gamma   89.36278946
_symmetry_Int_Tables_number   1
_chemical_formula_structural   H12PbC7(I2N)2
_chemical_formula_sum   'H48 Pb4 C28 I16 N8'
_cell_volume   1708.85615251
_cell_formula_units_Z   4
loop_
 _symmetry_equiv_pos_site_id
 _symmetry_equiv_pos_as_xyz
  1  'x, y, z'
loop_
 _atom_site_type_symbol
 _atom_site_label
 _atom_site_symmetry_multiplicity
 _atom_site_fract_x
 _atom_site_fract_y
 _atom_site_fract_z
 _atom_site_occupancy
  H  H0  1  0.21163227  0.11459036  0.18439437  1
  H  H1  1  0.16567834  0.04603846  0.32619396  1
  H  H2  1  0.30164051  0.04873487  0.28575641  1
  H  H3  1  0.27996532  0.11619134  0.52568027  1
  H  H4  1  0.33691355  0.35835413  0.69644301  1
  H  H5  1  0.34286200  0.21376559  0.69819605  1
  H  H6  1  0.15599210  0.20728243  0.73412087  1
  H  H7  1  0.14777501  0.34514749  0.73051382  1
  H  H8  1  0.20708370  0.27567931  0.84457689  1
  H  H9  1  0.26523473  0.46472717  0.51063744  1
  H  H10  1  0.21411627  0.45924788  0.28492417  1
  H  H11  1  0.19478251  0.29326195  0.20157899  1
  H  H12  1  0.11243037  0.77054766  0.17038139  1
  H  H13  1  0.04221657  0.81802205  0.30370549  1
  H  H14  1  0.05211821  0.67676975  0.28307387  1
  H  H15  1  0.11328146  0.72828696  0.52633324  1
  H  H16  1  0.35123012  0.67017946  0.70685620  1
  H  H17  1  0.21361665  0.65667148  0.70964675  1
  H  H18  1  0.19924640  0.85618074  0.72006671  1
  H  H19  1  0.32899945  0.86535540  0.71865293  1
  H  H20  1  0.26451254  0.79863729  0.83720636  1
  H  H21  1  0.44964491  0.72167116  0.51063688  1
  H  H22  1  0.44350092  0.74957025  0.27450542  1
  H  H23  1  0.28357081  0.77053057  0.18549607  1
  H  H24  1  0.87529837  0.28320768  0.82586611  1
  H  H25  1  0.94334044  0.33158275  0.68527346  1
  H  H26  1  0.93880951  0.19057005  0.72573949  1
  H  H27  1  0.87658481  0.22908107  0.47931727  1
  H  H28  1  0.63880513  0.16569669  0.30887274  1
  H  H29  1  0.77566022  0.14731062  0.31201287  1
  H  H30  1  0.79731460  0.34052900  0.25687357  1
  H  H31  1  0.66770680  0.35824762  0.25444795  1
  H  H32  1  0.72946097  0.27804812  0.15263941  1
  H  H33  1  0.54040373  0.23026643  0.49193207  1
  H  H34  1  0.54465770  0.26519981  0.72273140  1
  H  H35  1  0.70412473  0.28177783  0.81024853  1
  H  H36  1  0.71762710  0.89237726  0.82385521  1
  H  H37  1  0.67766084  0.96690760  0.68698083  1
  H  H38  1  0.81253249  0.95360757  0.71689861  1
  H  H39  1  0.76979649  0.89548596  0.47104095  1
  H  H40  1  0.84681158  0.65613467  0.29643902  1
  H  H41  1  0.84648944  0.80049859  0.29410147  1
  H  H42  1  0.66149760  0.80000494  0.25555992  1
  H  H43  1  0.66136978  0.66324540  0.25893215  1
  H  H44  1  0.73372336  0.73530423  0.14852064  1
  H  H45  1  0.77565483  0.54700535  0.48229373  1
  H  H46  1  0.73903274  0.54835930  0.71721636  1
  H  H47  1  0.72090916  0.71155942  0.80809360  1
  Pb  Pb48  1  0.97966709  0.01246932  0.01992593  1
  Pb  Pb49  1  0.98556000  0.51409557  0.99925652  1
  Pb  Pb50  1  0.49075274  1.00121899  0.99538286  1
  Pb  Pb51  1  0.48286540  0.50824565  0.00280769  1
  C  C52  1  0.22907222  0.09621962  0.28241490  1
  C  C53  1  0.23903966  0.19505010  0.35100786  1
  C  C54  1  0.26589293  0.19368192  0.47569889  1
  C  C55  1  0.27402023  0.28969081  0.53524068  1
  C  C56  1  0.29638525  0.28573522  0.67205467  1
  C  C57  1  0.25758859  0.38834450  0.46760545  1
  C  C58  1  0.22973652  0.38747705  0.34476835  1
  C  C59  1  0.09406560  0.75369143  0.27053304  1
  C  C60  1  0.18878237  0.74752360  0.34395774  1
  C  C61  1  0.18785608  0.73433855  0.47395911  1
  C  C62  1  0.28113632  0.72608994  0.53619138  1
  C  C63  1  0.27889156  0.70897218  0.67657819  1
  C  C64  1  0.37568440  0.73017226  0.46583949  1
  C  C65  1  0.37450215  0.74440923  0.33677104  1
  C  C66  1  0.89382309  0.26642711  0.72811350  1
  C  C67  1  0.79964738  0.25781473  0.65603234  1
  C  C68  1  0.80152858  0.23862345  0.52906791  1
  C  C69  1  0.70882450  0.22952498  0.46767306  1
  C  C70  1  0.71131720  0.20363722  0.33211117  1
  C  C71  1  0.61389749  0.23924563  0.53592648  1
  C  C72  1  0.61391236  0.25809928  0.66177243  1
  C  C73  1  0.73743871  0.91164677  0.72451954  1
  C  C74  1  0.74435754  0.81376408  0.65168618  1
  C  C75  1  0.76184368  0.81720970  0.52213707  1
  C  C76  1  0.77351051  0.72220077  0.45940167  1
  C  C77  1  0.80119847  0.72767954  0.32116405  1
  C  C78  1  0.76523573  0.62259392  0.52778066  1
  C  C79  1  0.74588458  0.62117985  0.65581021  1
  I  I80  1  0.25692996  0.93163018  0.02064929  1
  I  I81  1  0.24125211  0.56135713  0.02265446  1
  I  I82  1  0.75427034  0.09351766  0.99596717  1
  I  I83  1  0.74846812  0.46096055  0.96568913  1
  I  I84  1  0.06173027  0.25873487  0.02816227  1
  I  I85  1  0.90545109  0.76350769  0.98771901  1
  I  I86  1  0.46525952  0.25455420  0.02259635  1
  I  I87  1  0.55382883  0.75411944  0.97871254  1
  I  I88  1  0.07098415  0.01749762  0.70877732  1
  I  I89  1  0.94416701  0.01398519  0.31213469  1
  I  I90  1  0.04348580  0.52260366  0.70198395  1
  I  I91  1  0.95101078  0.45662462  0.30129338  1
  I  I92  1  0.45572022  0.01030982  0.69149379  1
  I  I93  1  0.53366025  0.96653512  0.28873913  1
  I  I94  1  0.49674177  0.51111934  0.70993950  1
  I  I95  1  0.53990401  0.50363562  0.30668909  1
  N  N96  1  0.19618234  0.27801055  0.74905890  1
  N  N97  1  0.22098044  0.29236870  0.29157765  1
  N  N98  1  0.26669134  0.81201254  0.74043874  1
  N  N99  1  0.28283976  0.75307188  0.28122053  1
  N  N100  1  0.72746215  0.30083561  0.24421862  1
  N  N101  1  0.70531271  0.26724715  0.71660182  1
  N  N102  1  0.70817789  0.73178499  0.24233859  1
  N  N103  1  0.73663616  0.71506809  0.71268908  1
