# generated using pymatgen
data_H14PbC8(I2N)2
_symmetry_space_group_name_H-M   'P 1'
_cell_length_a   12.74978745
_cell_length_b   12.59257815
_cell_length_c   11.54484842
_cell_angle_alpha   87.87723094
_cell_angle_beta   88.22192836
_cell_angle_gamma   89.19724744
_symmetry_Int_Tables_number   1
_chemical_formula_structural   H14PbC8(I2N)2
_chemical_formula_sum   'H56 Pb4 C32 I16 N8'
_cell_volume   1851.23919213
_cell_formula_units_Z   4
loop_
 _symmetry_equiv_pos_site_id
 _symmetry_equiv_pos_as_xyz
  1  'x, y, z'
loop_
 _atom_site_type_symbol
 _atom_site_label
 _atom_site_symmetry_multiplicity
 _atom_site_fract_x
 _atom_site_fract_y
 _atom_site_fract_z
 _atom_site_occupancy
  H  H0  1  0.32636377  0.08815262  0.27368897  1
  H  H1  1  0.24938664  0.02453175  0.38450222  1
  H  H2  1  0.18700288  0.08718819  0.26447928  1
  H  H3  1  0.21833420  0.11942895  0.55743060  1
  H  H4  1  0.14875605  0.35770904  0.72293847  1
  H  H5  1  0.14780817  0.21565395  0.72408386  1
  H  H6  1  0.33823220  0.34846889  0.75000096  1
  H  H7  1  0.33578506  0.21358467  0.75443542  1
  H  H8  1  0.26833467  0.28161774  0.85494384  1
  H  H9  1  0.21293374  0.46223937  0.55212210  1
  H  H10  1  0.24663078  0.46528962  0.33829446  1
  H  H11  1  0.34268160  0.26428147  0.17961696  1
  H  H12  1  0.27444011  0.37704402  0.17255582  1
  H  H13  1  0.21259438  0.26315445  0.15936929  1
  H  H14  1  0.09887586  0.66872043  0.27841358  1
  H  H15  1  0.03430794  0.74485803  0.38545045  1
  H  H16  1  0.09268898  0.80946509  0.26123974  1
  H  H17  1  0.12660866  0.78141564  0.55451906  1
  H  H18  1  0.36512215  0.84151076  0.71946629  1
  H  H19  1  0.22672733  0.85990432  0.71622635  1
  H  H20  1  0.33591175  0.64956602  0.75323795  1
  H  H21  1  0.20507773  0.66973680  0.75552031  1
  H  H22  1  0.27765120  0.72448738  0.85532694  1
  H  H23  1  0.46513336  0.78323024  0.55147558  1
  H  H24  1  0.46841304  0.74645988  0.34102149  1
  H  H25  1  0.26486205  0.65752856  0.18474354  1
  H  H26  1  0.38312129  0.70816336  0.18211341  1
  H  H27  1  0.27902990  0.78878953  0.15727642  1
  H  H28  1  0.90650159  0.16998356  0.72485873  1
  H  H29  1  0.96931996  0.24936062  0.61538834  1
  H  H30  1  0.90771584  0.31062909  0.73621530  1
  H  H31  1  0.87753933  0.27685401  0.44141619  1
  H  H32  1  0.64052710  0.33692429  0.26800272  1
  H  H33  1  0.77994847  0.34526317  0.26822667  1
  H  H34  1  0.65936607  0.14192507  0.25758150  1
  H  H35  1  0.79041320  0.15042124  0.25291210  1
  H  H36  1  0.71920498  0.20675561  0.14685114  1
  H  H37  1  0.53905790  0.28567461  0.44176192  1
  H  H38  1  0.53508153  0.25663003  0.65605190  1
  H  H39  1  0.73264909  0.15848142  0.82133065  1
  H  H40  1  0.61933499  0.22349410  0.82173739  1
  H  H41  1  0.72935873  0.29101299  0.83700433  1
  H  H42  1  0.83428571  0.90981792  0.71536635  1
  H  H43  1  0.75443585  0.97263977  0.60980624  1
  H  H44  1  0.69570037  0.91452703  0.73772642  1
  H  H45  1  0.71921477  0.87598649  0.44431682  1
  H  H46  1  0.65907431  0.63673780  0.28207102  1
  H  H47  1  0.65067397  0.77862220  0.28320642  1
  H  H48  1  0.84910853  0.65081948  0.25406735  1
  H  H49  1  0.83988623  0.78565847  0.25521113  1
  H  H50  1  0.78701816  0.72010885  0.15037538  1
  H  H51  1  0.71942008  0.53299845  0.45559539  1
  H  H52  1  0.75848626  0.53243884  0.66564567  1
  H  H53  1  0.85713831  0.73066000  0.81147901  1
  H  H54  1  0.78254756  0.62388023  0.82870620  1
  H  H55  1  0.72788155  0.74340016  0.84217680  1
  Pb  Pb56  1  0.99843688  0.00307708  0.00437651  1
  Pb  Pb57  1  1.00060456  0.49520286  0.99758290  1
  Pb  Pb58  1  0.48890889  0.99347692  0.00972882  1
  Pb  Pb59  1  0.50393480  0.50355433  0.98800738  1
  C  C60  1  0.25201630  0.09390644  0.32435212  1
  C  C61  1  0.24414057  0.19502956  0.38894976  1
  C  C62  1  0.22656422  0.19532106  0.50926290  1
  C  C63  1  0.21652148  0.29012667  0.56864806  1
  C  C64  1  0.19298932  0.28643646  0.69711735  1
  C  C65  1  0.22343458  0.38799142  0.50725268  1
  C  C66  1  0.24116342  0.39005755  0.38769002  1
  C  C67  1  0.25195999  0.29466001  0.33146569  1
  C  C68  1  0.10234630  0.74320989  0.32513010  1
  C  C69  1  0.20199780  0.75214316  0.38936412  1
  C  C70  1  0.20183807  0.77230863  0.50783797  1
  C  C71  1  0.29526652  0.78262756  0.56705533  1
  C  C72  1  0.29191855  0.80560993  0.69385807  1
  C  C73  1  0.39185120  0.77346798  0.50715574  1
  C  C74  1  0.39425876  0.75328452  0.38953825  1
  C  C75  1  0.30052983  0.74260970  0.33338595  1
  C  C76  1  0.90087325  0.24608368  0.67508796  1
  C  C77  1  0.80148620  0.25520469  0.60922483  1
  C  C78  1  0.80210165  0.27072886  0.48840531  1
  C  C79  1  0.70901276  0.27993211  0.42706578  1
  C  C80  1  0.71247890  0.29674039  0.29726426  1
  C  C81  1  0.61223094  0.27594578  0.48757377  1
  C  C82  1  0.60943560  0.26067142  0.60750834  1
  C  C83  1  0.70277147  0.24893932  0.66558790  1
  C  C84  1  0.75899088  0.90471796  0.67171457  1
  C  C85  1  0.74950247  0.80238654  0.61105843  1
  C  C86  1  0.72841568  0.80053802  0.49298543  1
  C  C87  1  0.71836967  0.70501897  0.43625026  1
  C  C88  1  0.69829521  0.70859892  0.30857083  1
  C  C89  1  0.72847880  0.60791108  0.49833221  1
  C  C90  1  0.74995385  0.60725902  0.61598224  1
  C  C91  1  0.76048542  0.70348936  0.66945571  1
  I  I92  1  0.25088620  0.92459796  0.01579016  1
  I  I93  1  0.24921098  0.52975304  0.01723878  1
  I  I94  1  0.75260402  0.02181110  0.97474012  1
  I  I95  1  0.75448801  0.44971047  0.95797377  1
  I  I96  1  0.08549291  0.24444505  0.99947292  1
  I  I97  1  0.97097290  0.74634662  0.00631259  1
  I  I98  1  0.49058280  0.24857732  0.02454238  1
  I  I99  1  0.56326983  0.74856506  0.98541326  1
  I  I100  1  0.04827308  0.98842866  0.73808500  1
  I  I101  1  0.92788501  0.00210000  0.28313488  1
  I  I102  1  0.03611878  0.55782520  0.72404970  1
  I  I103  1  0.95753405  0.48113317  0.27010159  1
  I  I104  1  0.46120679  0.04674035  0.74074212  1
  I  I105  1  0.53771914  0.99125863  0.28181993  1
  I  I106  1  0.46351399  0.50215673  0.71128469  1
  I  I107  1  0.48652724  0.50171151  0.25945393  1
  N  N108  1  0.29053339  0.28229412  0.76788810  1
  N  N109  1  0.27139868  0.29905023  0.20551632  1
  N  N110  1  0.27663910  0.70642876  0.76893267  1
  N  N111  1  0.30645886  0.72331430  0.20899249  1
  N  N112  1  0.72144025  0.19381462  0.23543348  1
  N  N113  1  0.69650375  0.22977308  0.79167020  1
  N  N114  1  0.79953337  0.71706209  0.23842405  1
  N  N115  1  0.78361536  0.70126859  0.79357690  1
