# generated using pymatgen
data_H16PbC11S(I2N)2
_symmetry_space_group_name_H-M   'P 1'
_cell_length_a   12.46787467
_cell_length_b   12.34438200
_cell_length_c   15.05966372
_cell_angle_alpha   89.52572197
_cell_angle_beta   91.15469167
_cell_angle_gamma   90.14854780
_symmetry_Int_Tables_number   1
_chemical_formula_structural   H16PbC11S(I2N)2
_chemical_formula_sum   'H64 Pb4 C44 S4 I16 N8'
_cell_volume   2317.24896548
_cell_formula_units_Z   4
loop_
 _symmetry_equiv_pos_site_id
 _symmetry_equiv_pos_as_xyz
  1  'x, y, z'
loop_
 _atom_site_type_symbol
 _atom_site_label
 _atom_site_symmetry_multiplicity
 _atom_site_fract_x
 _atom_site_fract_y
 _atom_site_fract_z
 _atom_site_occupancy
  H  H0  1  0.14554735  0.45969558  0.61471406  1
  H  H1  1  0.21200575  0.41896287  0.71410865  1
  H  H2  1  0.28760561  0.46951926  0.62474769  1
  H  H3  1  0.12592169  0.13519043  0.75516627  1
  H  H4  1  0.14533307  0.27606443  0.76936188  1
  H  H5  1  0.32151246  0.24425796  0.82554174  1
  H  H6  1  0.32710247  0.11762772  0.78966048  1
  H  H7  1  0.24392646  0.15217738  0.87115602  1
  H  H8  1  0.27599716  0.05185502  0.39239881  1
  H  H9  1  0.37822129  0.23260446  0.21736283  1
  H  H10  1  0.34668585  0.09663382  0.24516334  1
  H  H11  1  0.16129366  0.13152156  0.20449031  1
  H  H12  1  0.24216031  0.16773854  0.12105429  1
  H  H13  1  0.18529308  0.26284455  0.18471086  1
  H  H14  1  0.30753962  0.38530656  0.30690658  1
  H  H15  1  0.26716918  0.44947335  0.45778662  1
  H  H16  1  0.46106189  0.85629217  0.61619614  1
  H  H17  1  0.42741550  0.78236285  0.71296766  1
  H  H18  1  0.47549968  0.71265168  0.62016783  1
  H  H19  1  0.16079455  0.88096898  0.75120584  1
  H  H20  1  0.29353731  0.83672154  0.77219282  1
  H  H21  1  0.22853347  0.67569386  0.83605024  1
  H  H22  1  0.11029143  0.67917516  0.78284207  1
  H  H23  1  0.13860179  0.76709381  0.86325385  1
  H  H24  1  0.05348625  0.71692559  0.39120877  1
  H  H25  1  0.22728095  0.61744348  0.21665939  1
  H  H26  1  0.09348590  0.64949756  0.24454658  1
  H  H27  1  0.13603566  0.84099969  0.20792349  1
  H  H28  1  0.14335100  0.75534757  0.12297692  1
  H  H29  1  0.25535634  0.80144066  0.17032101  1
  H  H30  1  0.38120872  0.69781601  0.30462562  1
  H  H31  1  0.44896693  0.73898980  0.45680400  1
  H  H32  1  0.54019940  0.36875894  0.38688825  1
  H  H33  1  0.57279937  0.30336173  0.28718941  1
  H  H34  1  0.52786145  0.22611185  0.37871538  1
  H  H35  1  0.84973210  0.39047095  0.24126076  1
  H  H36  1  0.71024428  0.36311654  0.22797927  1
  H  H37  1  0.75250962  0.17862444  0.19100440  1
  H  H38  1  0.88535532  0.20189519  0.20563467  1
  H  H39  1  0.81503863  0.26944405  0.12525740  1
  H  H40  1  0.94903485  0.22875895  0.60725749  1
  H  H41  1  0.77738577  0.12668456  0.78275958  1
  H  H42  1  0.90954618  0.16672460  0.75697196  1
  H  H43  1  0.86310755  0.35280256  0.79542279  1
  H  H44  1  0.83920896  0.26538457  0.87817999  1
  H  H45  1  0.73747800  0.31493633  0.81800342  1
  H  H46  1  0.62083489  0.20345226  0.69298771  1
  H  H47  1  0.55344671  0.24291908  0.54028830  1
  H  H48  1  0.63900876  0.53639196  0.37784683  1
  H  H49  1  0.71161776  0.57448945  0.28372509  1
  H  H50  1  0.78096446  0.52749471  0.38109404  1
  H  H51  1  0.60128472  0.84773465  0.24004362  1
  H  H52  1  0.63855429  0.71055765  0.22488447  1
  H  H53  1  0.81570149  0.77465816  0.18149953  1
  H  H54  1  0.78369027  0.90235569  0.20538351  1
  H  H55  1  0.71786628  0.83495084  0.12349248  1
  H  H56  1  0.76402487  0.94741963  0.60392149  1
  H  H57  1  0.86280466  0.76973876  0.78296533  1
  H  H58  1  0.82934445  0.90437311  0.75267250  1
  H  H59  1  0.64418606  0.86835576  0.78999407  1
  H  H60  1  0.72648940  0.83966038  0.87462544  1
  H  H61  1  0.67281338  0.73885632  0.81600149  1
  H  H62  1  0.78925447  0.61477154  0.69372829  1
  H  H63  1  0.75702117  0.54879471  0.54066230  1
  Pb  Pb64  1  0.99769862  0.00162453  0.02794849  1
  Pb  Pb65  1  0.00371341  0.48569569  0.00842406  1
  Pb  Pb66  1  0.51114123  0.01532980  0.00630692  1
  Pb  Pb67  1  0.49135989  0.50551423  0.99295654  1
  C  C68  1  0.21793452  0.41921325  0.64158379  1
  C  C69  1  0.22798685  0.30767317  0.60448603  1
  C  C70  1  0.21529427  0.21269546  0.65165196  1
  C  C71  1  0.18333250  0.20187443  0.74589245  1
  C  C72  1  0.25302198  0.17490551  0.49265721  1
  C  C73  1  0.27377866  0.13832244  0.40682009  1
  C  C74  1  0.29222390  0.21495124  0.34001027  1
  C  C75  1  0.31721377  0.18013565  0.24713861  1
  C  C76  1  0.28996343  0.32675230  0.35936836  1
  C  C77  1  0.26860678  0.36287409  0.44405365  1
  C  C78  1  0.24990044  0.28726387  0.51257368  1
  C  C79  1  0.42479394  0.78044062  0.64029430  1
  C  C80  1  0.31318939  0.76830207  0.60392633  1
  C  C81  1  0.22109186  0.77699268  0.65182547  1
  C  C82  1  0.21500585  0.81140620  0.74565183  1
  C  C83  1  0.17795215  0.74338716  0.49192194  1
  C  C84  1  0.13943169  0.72231908  0.40578988  1
  C  C85  1  0.21354438  0.70716224  0.33863468  1
  C  C86  1  0.17624584  0.67941502  0.24624811  1
  C  C87  1  0.32482852  0.71405719  0.35743839  1
  C  C88  1  0.36291675  0.73520734  0.44261636  1
  C  C89  1  0.28982283  0.74926970  0.51152267  1
  C  C90  1  0.57744109  0.29585109  0.35959412  1
  C  C91  1  0.68949990  0.28269208  0.39443757  1
  C  C92  1  0.78155858  0.29561736  0.34669829  1
  C  C93  1  0.78696877  0.32939249  0.25174961  1
  C  C94  1  0.82466983  0.25398255  0.50590585  1
  C  C95  1  0.86304792  0.23266950  0.59236355  1
  C  C96  1  0.78871230  0.21612202  0.65943892  1
  C  C97  1  0.82534641  0.19166506  0.75282347  1
  C  C98  1  0.67742926  0.21958987  0.64008380  1
  C  C99  1  0.63947325  0.24073102  0.55469912  1
  C  C100  1  0.71277333  0.25863273  0.48625008  1
  C  C101  1  0.71310269  0.57658594  0.35645550  1
  C  C102  1  0.71968488  0.68902823  0.39211743  1
  C  C103  1  0.70280408  0.78285355  0.34406235  1
  C  C104  1  0.66685499  0.78927626  0.24945433  1
  C  C105  1  0.74189111  0.82331409  0.50344259  1
  C  C106  1  0.76104086  0.86078243  0.58985542  1
  C  C107  1  0.77676518  0.78444588  0.65790629  1
  C  C108  1  0.80077776  0.82053972  0.75089124  1
  C  C109  1  0.77476946  0.67252355  0.63965122  1
  C  C110  1  0.75757989  0.63548393  0.55405323  1
  C  C111  1  0.74079436  0.71065314  0.48443729  1
  S  S112  1  0.22841943  0.09674253  0.58650622  1
  S  S113  1  0.10366720  0.76365539  0.58667820  1
  S  S114  1  0.89891695  0.27956315  0.41162671  1
  S  S115  1  0.71444960  0.90009270  0.40858409  1
  I  I116  1  0.25747051  0.95615596  0.02188804  1
  I  I117  1  0.24798678  0.58310333  0.99437093  1
  I  I118  1  0.75897266  0.06537298  0.97608385  1
  I  I119  1  0.75458484  0.42580271  0.01598856  1
  I  I120  1  0.06229745  0.24484528  0.96880516  1
  I  I121  1  0.94779798  0.74591439  0.03547812  1
  I  I122  1  0.41606999  0.25976863  0.00224960  1
  I  I123  1  0.57685132  0.76465896  0.00982065  1
  I  I124  1  0.01556807  0.97581566  0.82687641  1
  I  I125  1  0.00317079  0.00282575  0.24993584  1
  I  I126  1  0.98122225  0.51655232  0.79053636  1
  I  I127  1  0.05944063  0.41518156  0.20844006  1
  I  I128  1  0.50154801  0.01557602  0.78827932  1
  I  I129  1  0.58708977  0.06396498  0.20672562  1
  I  I130  1  0.51969200  0.51719820  0.78173472  1
  I  I131  1  0.47442349  0.51924021  0.20137504  1
  N  N132  1  0.27435963  0.17758923  0.81088944  1
  N  N133  1  0.22075487  0.18588359  0.18534219  1
  N  N134  1  0.17116451  0.72825013  0.80941725  1
  N  N135  1  0.17883505  0.77537488  0.18377746  1
  N  N136  1  0.81270564  0.23804508  0.18973000  1
  N  N137  1  0.81502421  0.28693239  0.81417340  1
  N  N138  1  0.75250339  0.82795974  0.18711318  1
  N  N139  1  0.70552288  0.81565179  0.81084631  1
