# generated using pymatgen
data_H18PbC10(I2N)2
_symmetry_space_group_name_H-M   'P 1'
_cell_length_a   12.41290905
_cell_length_b   12.30337034
_cell_length_c   14.12959142
_cell_angle_alpha   89.49634382
_cell_angle_beta   89.02653388
_cell_angle_gamma   89.55582061
_symmetry_Int_Tables_number   1
_chemical_formula_structural   H18PbC10(I2N)2
_chemical_formula_sum   'H72 Pb4 C40 I16 N8'
_cell_volume   2157.42273570
_cell_formula_units_Z   4
loop_
 _symmetry_equiv_pos_site_id
 _symmetry_equiv_pos_as_xyz
  1  'x, y, z'
loop_
 _atom_site_type_symbol
 _atom_site_label
 _atom_site_symmetry_multiplicity
 _atom_site_fract_x
 _atom_site_fract_y
 _atom_site_fract_z
 _atom_site_occupancy
  H  H0  1  0.26717822  0.42757128  0.38154597  1
  H  H1  1  0.24295147  0.48728446  0.49393903  1
  H  H2  1  0.13488749  0.43243117  0.42933037  1
  H  H3  1  0.28375989  0.38388864  0.62776630  1
  H  H4  1  0.36338876  0.13697442  0.75968519  1
  H  H5  1  0.36429649  0.28143513  0.75802360  1
  H  H6  1  0.17003979  0.14420930  0.79485896  1
  H  H7  1  0.17155461  0.28046700  0.79731538  1
  H  H8  1  0.24411331  0.20860064  0.87595114  1
  H  H9  1  0.28229686  0.03383031  0.62650014  1
  H  H10  1  0.22305731  0.03824013  0.45994346  1
  H  H11  1  0.13324519  0.28425481  0.33207137  1
  H  H12  1  0.13332125  0.14032967  0.33667691  1
  H  H13  1  0.32847814  0.13618955  0.28686766  1
  H  H14  1  0.32919701  0.28056149  0.28029689  1
  H  H15  1  0.18238883  0.26697070  0.16406452  1
  H  H16  1  0.18972926  0.13320790  0.16969564  1
  H  H17  1  0.29541416  0.20643786  0.12645372  1
  H  H18  1  0.42804083  0.73313768  0.38250021  1
  H  H19  1  0.48595391  0.75389121  0.49466910  1
  H  H20  1  0.43164863  0.86514817  0.43002433  1
  H  H21  1  0.38203205  0.71220952  0.62958546  1
  H  H22  1  0.13446342  0.63234937  0.76074014  1
  H  H23  1  0.27758518  0.62569234  0.75878048  1
  H  H24  1  0.14926757  0.82920525  0.79398944  1
  H  H25  1  0.28237230  0.81574558  0.79995573  1
  H  H26  1  0.20663023  0.74655225  0.87657864  1
  H  H27  1  0.03516823  0.71564108  0.62661734  1
  H  H28  1  0.04123373  0.77665475  0.45874729  1
  H  H29  1  0.28657716  0.86770680  0.33139741  1
  H  H30  1  0.14430248  0.86874251  0.33563089  1
  H  H31  1  0.14014467  0.67419122  0.28590967  1
  H  H32  1  0.28333765  0.66920779  0.28204387  1
  H  H33  1  0.27956360  0.81362130  0.16180997  1
  H  H34  1  0.14657619  0.82136714  0.16921666  1
  H  H35  1  0.20929285  0.70726076  0.12669103  1
  H  H36  1  0.57228213  0.23192834  0.61925465  1
  H  H37  1  0.51368556  0.25365422  0.50679802  1
  H  H38  1  0.56606850  0.36441384  0.57081489  1
  H  H39  1  0.61750295  0.21624937  0.37189745  1
  H  H40  1  0.86573780  0.14316122  0.23756446  1
  H  H41  1  0.72240599  0.13780272  0.23974049  1
  H  H42  1  0.85246495  0.33978840  0.20830074  1
  H  H43  1  0.71781941  0.33274758  0.20581622  1
  H  H44  1  0.79269181  0.26569570  0.12523348  1
  H  H45  1  0.96385382  0.21880531  0.37388816  1
  H  H46  1  0.95792764  0.27622649  0.54199247  1
  H  H47  1  0.71110149  0.36757320  0.66889662  1
  H  H48  1  0.85351954  0.37136988  0.66331267  1
  H  H49  1  0.86294632  0.17515246  0.71366369  1
  H  H50  1  0.71961571  0.17133838  0.72289932  1
  H  H51  1  0.73228330  0.32192267  0.83835332  1
  H  H52  1  0.86567388  0.31556109  0.82937816  1
  H  H53  1  0.79482143  0.20930403  0.87469243  1
  H  H54  1  0.76594524  0.57178886  0.61648320  1
  H  H55  1  0.74719295  0.51199029  0.50390599  1
  H  H56  1  0.63597964  0.56668696  0.56902314  1
  H  H57  1  0.78356089  0.61591282  0.36810719  1
  H  H58  1  0.85400871  0.86571378  0.23336750  1
  H  H59  1  0.86346045  0.72133574  0.23567702  1
  H  H60  1  0.65912506  0.84868697  0.20807096  1
  H  H61  1  0.67155606  0.71291308  0.20502271  1
  H  H62  1  0.73475084  0.78815673  0.12341576  1
  H  H63  1  0.78001760  0.96626701  0.37270013  1
  H  H64  1  0.72319235  0.96053949  0.54142141  1
  H  H65  1  0.63122581  0.71182052  0.66693685  1
  H  H66  1  0.62788984  0.85537287  0.66354332  1
  H  H67  1  0.81999488  0.86157379  0.71535324  1
  H  H68  1  0.82451573  0.71702156  0.72049581  1
  H  H69  1  0.67458069  0.72480003  0.83682563  1
  H  H70  1  0.67224398  0.85993079  0.82868794  1
  H  H71  1  0.78106285  0.79310609  0.87396792  1
  Pb  Pb72  1  0.00669537  0.99228508  0.97954983  1
  Pb  Pb73  1  0.01057716  0.49674398  0.00565281  1
  Pb  Pb74  1  0.51282571  0.00875692  0.00951111  1
  Pb  Pb75  1  0.50599733  0.49508074  0.00593391  1
  C  C76  1  0.21996552  0.42032844  0.44790227  1
  C  C77  1  0.23732940  0.31218590  0.49620970  1
  C  C78  1  0.26964528  0.30796339  0.59055753  1
  C  C79  1  0.28501182  0.20932174  0.63864058  1
  C  C80  1  0.31654882  0.20971592  0.74071207  1
  C  C81  1  0.26945898  0.11170532  0.59067766  1
  C  C82  1  0.23683793  0.11446872  0.49679846  1
  C  C83  1  0.21989105  0.21333228  0.44908002  1
  C  C84  1  0.18344669  0.21232934  0.34786713  1
  C  C85  1  0.27759219  0.20866367  0.27693675  1
  C  C86  1  0.41981995  0.77895468  0.44875841  1
  C  C87  1  0.31242009  0.76117325  0.49698026  1
  C  C88  1  0.30720895  0.72758533  0.59178472  1
  C  C89  1  0.20873763  0.71150001  0.63927531  1
  C  C90  1  0.20778026  0.67706202  0.74130626  1
  C  C91  1  0.11260518  0.72857008  0.59070797  1
  C  C92  1  0.11634269  0.76226388  0.49632360  1
  C  C93  1  0.21504916  0.77904762  0.44892857  1
  C  C94  1  0.21556858  0.81713764  0.34728043  1
  C  C95  1  0.21307276  0.72352678  0.27688276  1
  C  C96  1  0.57930524  0.27845968  0.55262773  1
  C  C97  1  0.68700576  0.26172908  0.50439726  1
  C  C98  1  0.69225908  0.23012003  0.40952748  1
  C  C99  1  0.79069892  0.21604415  0.36137718  1
  C  C100  1  0.79202692  0.18740080  0.25832362  1
  C  C101  1  0.88660277  0.23116915  0.41011185  1
  C  C102  1  0.88288966  0.26292633  0.50452166  1
  C  C103  1  0.78419888  0.27983976  0.55209718  1
  C  C104  1  0.78364091  0.31850769  0.65313100  1
  C  C105  1  0.78996895  0.22481821  0.72455486  1
  C  C106  1  0.72149201  0.57882172  0.55000613  1
  C  C107  1  0.73858924  0.68695878  0.50193410  1
  C  C108  1  0.76995618  0.69168125  0.40645934  1
  C  C109  1  0.78367012  0.79084950  0.35870121  1
  C  C110  1  0.81222359  0.79110909  0.25507291  1
  C  C111  1  0.76843377  0.88803693  0.40826636  1
  C  C112  1  0.73706507  0.88455667  0.50344508  1
  C  C113  1  0.72057933  0.78518760  0.55067675  1
  C  C114  1  0.68046088  0.78424841  0.65198544  1
  C  C115  1  0.77077563  0.78821229  0.72404153  1
  I  I116  1  0.25803603  0.95770290  0.98364207  1
  I  I117  1  0.24926986  0.58087142  0.99667572  1
  I  I118  1  0.75837063  0.07416975  0.01198629  1
  I  I119  1  0.75507159  0.46693666  0.99210764  1
  I  I120  1  0.03377565  0.24637453  0.01732720  1
  I  I121  1  0.92393266  0.75204931  0.99558492  1
  I  I122  1  0.41524117  0.25250218  0.99204688  1
  I  I123  1  0.53468435  0.75331813  0.00760436  1
  I  I124  1  0.02774129  0.99377481  0.75232067  1
  I  I125  1  0.03247005  0.99135706  0.20498912  1
  I  I126  1  0.02944960  0.43648258  0.77923311  1
  I  I127  1  0.99759292  0.48511568  0.23240968  1
  I  I128  1  0.53971751  0.00805990  0.78452162  1
  I  I129  1  0.51329229  0.99156844  0.23797367  1
  I  I130  1  0.51123159  0.50512689  0.77726733  1
  I  I131  1  0.53988566  0.49219709  0.23314920  1
  N  N132  1  0.21926326  0.21089695  0.80628179  1
  N  N133  1  0.23461186  0.20345925  0.17876491  1
  N  N134  1  0.21145754  0.77327392  0.80662356  1
  N  N135  1  0.21192019  0.76839977  0.17781148  1
  N  N136  1  0.78808468  0.28756931  0.19577005  1
  N  N137  1  0.79563567  0.26976810  0.82257775  1
  N  N138  1  0.71346352  0.78459679  0.19448192  1
  N  N139  1  0.72251075  0.79135100  0.82195540  1
