# generated using pymatgen
data_H16PbC11S(I2N)2
_symmetry_space_group_name_H-M   'P 1'
_cell_length_a   12.50241567
_cell_length_b   12.44076226
_cell_length_c   14.40960544
_cell_angle_alpha   89.73457026
_cell_angle_beta   88.73732465
_cell_angle_gamma   90.09653056
_symmetry_Int_Tables_number   1
_chemical_formula_structural   H16PbC11S(I2N)2
_chemical_formula_sum   'H64 Pb4 C44 S4 I16 N8'
_cell_volume   2240.69213803
_cell_formula_units_Z   4
loop_
 _symmetry_equiv_pos_site_id
 _symmetry_equiv_pos_as_xyz
  1  'x, y, z'
loop_
 _atom_site_type_symbol
 _atom_site_label
 _atom_site_symmetry_multiplicity
 _atom_site_fract_x
 _atom_site_fract_y
 _atom_site_fract_z
 _atom_site_occupancy
  H  H0  1  0.12734111  0.46098070  0.62516595  1
  H  H1  1  0.23739484  0.48515854  0.54803928  1
  H  H2  1  0.26000377  0.46281273  0.66694254  1
  H  H3  1  0.14340568  0.35298104  0.76566622  1
  H  H4  1  0.12238276  0.21496348  0.79235896  1
  H  H5  1  0.25816145  0.29856152  0.88531288  1
  H  H6  1  0.33589034  0.32429070  0.79305576  1
  H  H7  1  0.31114477  0.19612185  0.82318818  1
  H  H8  1  0.19985950  0.07297237  0.69887104  1
  H  H9  1  0.24046715  0.00620899  0.54019395  1
  H  H10  1  0.28503614  0.06861397  0.35534654  1
  H  H11  1  0.34565325  0.17117365  0.20915223  1
  H  H12  1  0.37659549  0.31086363  0.22099030  1
  H  H13  1  0.16556426  0.21805963  0.17106807  1
  H  H14  1  0.18197937  0.34649330  0.19946611  1
  H  H15  1  0.24665671  0.29716454  0.10785746  1
  H  H16  1  0.45772282  0.86447503  0.62183024  1
  H  H17  1  0.48038337  0.75494951  0.54562819  1
  H  H18  1  0.45769801  0.73080835  0.66518015  1
  H  H19  1  0.34888928  0.86260443  0.75772972  1
  H  H20  1  0.21183347  0.88070286  0.78819300  1
  H  H21  1  0.31516228  0.74787179  0.88107948  1
  H  H22  1  0.31356272  0.66422354  0.79193857  1
  H  H23  1  0.19712284  0.70453638  0.84249839  1
  H  H24  1  0.06996862  0.80596112  0.69901577  1
  H  H25  1  0.00388305  0.76019757  0.54257443  1
  H  H26  1  0.06632118  0.71667188  0.35807952  1
  H  H27  1  0.16919042  0.66233011  0.20926494  1
  H  H28  1  0.30978533  0.63828003  0.21509449  1
  H  H29  1  0.20062769  0.84904169  0.18605056  1
  H  H30  1  0.33348171  0.83951569  0.20433850  1
  H  H31  1  0.28266508  0.78197782  0.11140335  1
  H  H32  1  0.54184317  0.35756630  0.37805077  1
  H  H33  1  0.52125449  0.24661367  0.45380178  1
  H  H34  1  0.54349076  0.22489446  0.33426200  1
  H  H35  1  0.65185274  0.35943265  0.24108339  1
  H  H36  1  0.78902035  0.37163376  0.20765965  1
  H  H37  1  0.68068706  0.24089649  0.11921400  1
  H  H38  1  0.67468549  0.16056417  0.21086261  1
  H  H39  1  0.79415680  0.19072173  0.16123251  1
  H  H40  1  0.93064269  0.30102956  0.29912809  1
  H  H41  1  0.99717710  0.25649879  0.45605858  1
  H  H42  1  0.93439271  0.20890966  0.64125212  1
  H  H43  1  0.83276197  0.15253807  0.78888698  1
  H  H44  1  0.69617548  0.11279627  0.77795789  1
  H  H45  1  0.77624361  0.33365667  0.81743518  1
  H  H46  1  0.64640181  0.30374990  0.80049593  1
  H  H47  1  0.70754274  0.24888599  0.89010964  1
  H  H48  1  0.63264695  0.54678864  0.37577770  1
  H  H49  1  0.73865602  0.52203769  0.45289943  1
  H  H50  1  0.76725042  0.54468244  0.33410086  1
  H  H51  1  0.65087716  0.65552813  0.23661841  1
  H  H52  1  0.63189947  0.79375338  0.21042820  1
  H  H53  1  0.77245418  0.71217349  0.11762880  1
  H  H54  1  0.84416057  0.68068724  0.20909488  1
  H  H55  1  0.82524935  0.81061145  0.18320479  1
  H  H56  1  0.69928711  0.93516232  0.30598366  1
  H  H57  1  0.74206013  1.00051478  0.46367702  1
  H  H58  1  0.79398448  0.93522039  0.64514245  1
  H  H59  1  0.85655837  0.82874698  0.78768581  1
  H  H60  1  0.89046077  0.69072014  0.76966257  1
  H  H61  1  0.67774851  0.77306947  0.83142602  1
  H  H62  1  0.69953252  0.64635330  0.79899205  1
  H  H63  1  0.76231243  0.69473409  0.88970916  1
  Pb  Pb64  1  0.00307604  0.98997100  0.00567595  1
  Pb  Pb65  1  0.98038938  0.49157995  0.99639020  1
  Pb  Pb66  1  0.49824274  1.00645030  0.99325977  1
  Pb  Pb67  1  0.48553280  0.50338420  0.99545046  1
  C  C68  1  0.21053529  0.43771536  0.60862650  1
  C  C69  1  0.21958664  0.31874153  0.59092806  1
  C  C70  1  0.20479979  0.24102584  0.66133113  1
  C  C71  1  0.17862933  0.27262906  0.75976764  1
  C  C72  1  0.21356317  0.13000660  0.64221975  1
  C  C73  1  0.23556340  0.09224308  0.55377140  1
  C  C74  1  0.25047178  0.16721895  0.48134179  1
  C  C75  1  0.27428717  0.14813056  0.38544416  1
  C  C76  1  0.28549043  0.24092202  0.33472275  1
  C  C77  1  0.31541249  0.24871815  0.23460770  1
  C  C78  1  0.24268883  0.27904175  0.50139860  1
  C  C79  1  0.43332585  0.78144235  0.60650037  1
  C  C80  1  0.31482051  0.77404534  0.59027009  1
  C  C81  1  0.23726662  0.79332185  0.66058398  1
  C  C82  1  0.26970102  0.82467063  0.75642124  1
  C  C83  1  0.12662787  0.78697413  0.64283327  1
  C  C84  1  0.08941653  0.76273212  0.55570928  1
  C  C85  1  0.16422925  0.74456097  0.48319628  1
  C  C86  1  0.14539644  0.72313495  0.38771824  1
  C  C87  1  0.23772479  0.71293839  0.33573376  1
  C  C88  1  0.24528297  0.69461124  0.23386286  1
  C  C89  1  0.27560147  0.75021100  0.50192313  1
  C  C90  1  0.56779557  0.27487979  0.39298629  1
  C  C91  1  0.68632350  0.26932653  0.40891961  1
  C  C92  1  0.76338960  0.28881453  0.33816158  1
  C  C93  1  0.72969759  0.31877652  0.24207634  1
  C  C94  1  0.87406760  0.28336499  0.35586844  1
  C  C95  1  0.91156895  0.25966155  0.44327898  1
  C  C96  1  0.83701506  0.24092789  0.51618357  1
  C  C97  1  0.85542565  0.21697136  0.61157577  1
  C  C98  1  0.76270116  0.20396636  0.66289560  1
  C  C99  1  0.75437028  0.17738768  0.76353825  1
  C  C100  1  0.72571165  0.24604742  0.49737199  1
  C  C101  1  0.71506215  0.56978258  0.39248989  1
  C  C102  1  0.72323009  0.68859105  0.41045334  1
  C  C103  1  0.70771679  0.76693208  0.34143496  1
  C  C104  1  0.68601647  0.73592044  0.24302353  1
  C  C105  1  0.71450144  0.87777706  0.36156600  1
  C  C106  1  0.73735192  0.91466606  0.44930805  1
  C  C107  1  0.75475864  0.83886021  0.52007598  1
  C  C108  1  0.78180083  0.85624424  0.61470456  1
  C  C109  1  0.79511312  0.76229140  0.66304864  1
  C  C110  1  0.82779273  0.75155446  0.76104175  1
  C  C111  1  0.74705775  0.72737324  0.49911492  1
  S  S112  1  0.26721391  0.35628171  0.40190547  1
  S  S113  1  0.35236211  0.72664740  0.40176921  1
  S  S114  1  0.64839865  0.21916507  0.59667372  1
  S  S115  1  0.77504366  0.64826458  0.59547760  1
  I  I116  1  0.24960226  0.03465564  0.98891118  1
  I  I117  1  0.23521781  0.47836129  0.98538964  1
  I  I118  1  0.74895714  -0.00383043  0.00964380  1
  I  I119  1  0.73392592  0.53495084  0.01987556  1
  I  I120  1  -0.02101210  0.24212225  0.04641296  1
  I  I121  1  0.02258824  0.73877967  0.95884292  1
  I  I122  1  0.51490306  0.25654522  0.01549620  1
  I  I123  1  0.47635349  0.75555468  0.98443423  1
  I  I124  1  0.99724667  0.01151842  0.78895572  1
  I  I125  1  0.02511060  0.94866397  0.22598962  1
  I  I126  1  0.92565142  0.45995330  0.77988943  1
  I  I127  1  0.98631326  0.52641204  0.21734966  1
  I  I128  1  0.48770983  0.04443505  0.77514296  1
  I  I129  1  0.48584415  0.98980795  0.21912533  1
  I  I130  1  0.49114310  0.48908262  0.76745507  1
  I  I131  1  0.47489254  0.50716051  0.21377985  1
  N  N132  1  0.27739628  0.27203586  0.81887267  1
  N  N133  1  0.22149491  0.27901079  0.17509298  1
  N  N134  1  0.27340324  0.72856747  0.82145710  1
  N  N135  1  0.26708977  0.79771427  0.18059810  1
  N  N136  1  0.71982526  0.22116315  0.18007492  1
  N  N137  1  0.71839754  0.27209065  0.82167650  1
  N  N138  1  0.78839013  0.73609069  0.18475424  1
  N  N139  1  0.73578571  0.71483446  0.82404925  1
