# generated using pymatgen
data_H18PbC10(I2N)2
_symmetry_space_group_name_H-M   'P 1'
_cell_length_a   12.73618074
_cell_length_b   12.75688359
_cell_length_c   13.38548647
_cell_angle_alpha   88.49011259
_cell_angle_beta   88.07635234
_cell_angle_gamma   90.76293688
_symmetry_Int_Tables_number   1
_chemical_formula_structural   H18PbC10(I2N)2
_chemical_formula_sum   'H72 Pb4 C40 I16 N8'
_cell_volume   2172.59343446
_cell_formula_units_Z   4
loop_
 _symmetry_equiv_pos_site_id
 _symmetry_equiv_pos_as_xyz
  1  'x, y, z'
loop_
 _atom_site_type_symbol
 _atom_site_label
 _atom_site_symmetry_multiplicity
 _atom_site_fract_x
 _atom_site_fract_y
 _atom_site_fract_z
 _atom_site_occupancy
  H  H0  1  0.12773031  0.07149827  0.33453911  1
  H  H1  1  0.26570560  0.07798188  0.31425151  1
  H  H2  1  0.21257600  0.02194838  0.42705256  1
  H  H3  1  0.19626998  0.12254127  0.56889442  1
  H  H4  1  0.14520590  0.22472877  0.71637569  1
  H  H5  1  0.15584712  0.36385583  0.71255521  1
  H  H6  1  0.35242609  0.35265954  0.69570060  1
  H  H7  1  0.34302806  0.21297057  0.69594755  1
  H  H8  1  0.26884422  0.21637605  0.86624481  1
  H  H9  1  0.38498440  0.27648751  0.85653697  1
  H  H10  1  0.27760398  0.34769485  0.86538694  1
  H  H11  1  0.19692113  0.45999099  0.55245597  1
  H  H12  1  0.20542391  0.45370983  0.36721197  1
  H  H13  1  0.17459758  0.35764699  0.22054400  1
  H  H14  1  0.16079428  0.21882195  0.22229955  1
  H  H15  1  0.31353703  0.27929029  0.12808108  1
  H  H16  1  0.36352362  0.33907951  0.22614534  1
  H  H17  1  0.35318054  0.20646564  0.22431917  1
  H  H18  1  0.07484155  0.86340899  0.32912661  1
  H  H19  1  0.08115745  0.72600120  0.31677787  1
  H  H20  1  0.02536897  0.77848911  0.42696057  1
  H  H21  1  0.12608358  0.80022646  0.56683262  1
  H  H22  1  0.22971987  0.85614501  0.70985944  1
  H  H23  1  0.36828196  0.84253744  0.70752212  1
  H  H24  1  0.34790676  0.64692271  0.70304569  1
  H  H25  1  0.20852616  0.65861402  0.70038663  1
  H  H26  1  0.20878190  0.73015745  0.86559932  1
  H  H27  1  0.27014643  0.61631618  0.86527248  1
  H  H28  1  0.34051651  0.72584903  0.86832981  1
  H  H29  1  0.46443039  0.80282936  0.54818387  1
  H  H30  1  0.45822409  0.79439098  0.36389165  1
  H  H31  1  0.36333412  0.82330886  0.21662103  1
  H  H32  1  0.22519435  0.83970283  0.21853662  1
  H  H33  1  0.28797061  0.68827279  0.12923004  1
  H  H34  1  0.33179712  0.63210315  0.23296303  1
  H  H35  1  0.20160484  0.65080736  0.22057637  1
  H  H36  1  0.92787001  0.36093578  0.66854266  1
  H  H37  1  0.91841179  0.22287442  0.68466646  1
  H  H38  1  0.97597323  0.27852281  0.57329681  1
  H  H39  1  0.87712979  0.29902759  0.43231032  1
  H  H40  1  0.77436403  0.35347676  0.28395871  1
  H  H41  1  0.63547985  0.33606184  0.28749745  1
  H  H42  1  0.65657018  0.14107588  0.30757458  1
  H  H43  1  0.79600402  0.15708564  0.30454869  1
  H  H44  1  0.78765069  0.22463938  0.13348885  1
  H  H45  1  0.73016321  0.10783985  0.14601983  1
  H  H46  1  0.65615779  0.21395490  0.13769668  1
  H  H47  1  0.53893941  0.30359627  0.44815833  1
  H  H48  1  0.54347133  0.29423559  0.63347504  1
  H  H49  1  0.63972331  0.32014317  0.78181905  1
  H  H50  1  0.77893634  0.33101712  0.77927056  1
  H  H51  1  0.72092530  0.17880581  0.87097896  1
  H  H52  1  0.65129649  0.13294884  0.77745179  1
  H  H53  1  0.78470555  0.13746478  0.76956396  1
  H  H54  1  0.63132572  0.92393772  0.66910192  1
  H  H55  1  0.76887846  0.92037527  0.68335862  1
  H  H56  1  0.71797016  0.97505363  0.57284517  1
  H  H57  1  0.69923413  0.87399077  0.43267147  1
  H  H58  1  0.64660889  0.76965703  0.28844100  1
  H  H59  1  0.66436450  0.63186767  0.28939937  1
  H  H60  1  0.85935536  0.65781280  0.29501910  1
  H  H61  1  0.84391129  0.79644149  0.30093137  1
  H  H62  1  0.77558293  0.79724696  0.13495417  1
  H  H63  1  0.89187464  0.73927343  0.13529614  1
  H  H64  1  0.78360610  0.66622366  0.12902147  1
  H  H65  1  0.69929673  0.53639427  0.44977528  1
  H  H66  1  0.70989045  0.54301191  0.63358686  1
  H  H67  1  0.68432084  0.63845447  0.78294457  1
  H  H68  1  0.66558787  0.77588940  0.78157167  1
  H  H69  1  0.81924935  0.71931625  0.86677036  1
  H  H70  1  0.87526058  0.67210524  0.76452733  1
  H  H71  1  0.85583117  0.80261610  0.77259472  1
  Pb  Pb72  1  0.00091941  0.00352882  0.99154873  1
  Pb  Pb73  1  0.00296020  0.48376163  0.99809980  1
  Pb  Pb74  1  0.47994674  0.99962696  0.00256599  1
  Pb  Pb75  1  0.51315056  0.50215166  0.01322287  1
  C  C76  1  0.20246300  0.08537295  0.37149975  1
  C  C77  1  0.20362778  0.19014746  0.41997503  1
  C  C78  1  0.19911538  0.19556547  0.52426271  1
  C  C79  1  0.19597127  0.29116699  0.57310480  1
  C  C80  1  0.19271778  0.29171628  0.68586317  1
  C  C81  1  0.30464276  0.28439357  0.72154954  1
  C  C82  1  0.19981697  0.38458265  0.51581307  1
  C  C83  1  0.20476208  0.38088763  0.41177443  1
  C  C84  1  0.20603717  0.28495045  0.36315266  1
  C  C85  1  0.20656391  0.28440500  0.25082716  1
  C  C86  1  0.08911749  0.78939296  0.37030550  1
  C  C87  1  0.19399349  0.79121112  0.41813792  1
  C  C88  1  0.19927855  0.79793607  0.52192910  1
  C  C89  1  0.29509206  0.80348617  0.56993785  1
  C  C90  1  0.29475255  0.80717904  0.68249835  1
  C  C91  1  0.28113279  0.69576187  0.72485557  1
  C  C92  1  0.38868275  0.79992272  0.51241384  1
  C  C93  1  0.38506988  0.79412095  0.40870044  1
  C  C94  1  0.28894060  0.79059666  0.36080030  1
  C  C95  1  0.28856296  0.79194804  0.24849215  1
  C  C96  1  0.91233922  0.28774461  0.62942190  1
  C  C97  1  0.80781492  0.29053880  0.58094422  1
  C  C98  1  0.80345119  0.29701158  0.47668702  1
  C  C99  1  0.70823041  0.30188615  0.42755010  1
  C  C100  1  0.70915957  0.30335469  0.31461938  1
  C  C101  1  0.72242459  0.19132890  0.27990295  1
  C  C102  1  0.61413009  0.29970124  0.48481945  1
  C  C103  1  0.61678621  0.29409776  0.58894050  1
  C  C104  1  0.71235610  0.28963165  0.63773629  1
  C  C105  1  0.71232256  0.28722746  0.75015467  1
  C  C106  1  0.70681064  0.91134536  0.62901122  1
  C  C107  1  0.70826739  0.80661834  0.58084234  1
  C  C108  1  0.70213888  0.80096725  0.47705525  1
  C  C109  1  0.69872640  0.70533514  0.42836084  1
  C  C110  1  0.69710847  0.70612213  0.31555760  1
  C  C111  1  0.80914287  0.72361254  0.27430344  1
  C  C112  1  0.70257322  0.61215814  0.48561880  1
  C  C113  1  0.70916194  0.61607526  0.58936307  1
  C  C114  1  0.71208625  0.71214361  0.63780609  1
  C  C115  1  0.71382546  0.71329975  0.75015500  1
  I  I116  1  0.23307607  0.08590674  0.01753943  1
  I  I117  1  0.25533782  0.47199232  0.01219222  1
  I  I118  1  0.72607291  0.95758730  0.99140235  1
  I  I119  1  0.75859334  0.54036143  0.99020352  1
  I  I120  1  0.92329215  0.25047951  0.97734365  1
  I  I121  1  0.05811230  0.75833809  0.00654478  1
  I  I122  1  0.53226515  0.25568994  0.99805568  1
  I  I123  1  0.46703281  0.74964469  0.01157405  1
  I  I124  1  0.96725483  0.99009938  0.75397920  1
  I  I125  1  0.93881650  1.00160904  0.22022381  1
  I  I126  1  0.01949301  0.54144603  0.76207500  1
  I  I127  1  0.00962975  0.51360179  0.23132395  1
  I  I128  1  0.47382448  0.04527929  0.76640329  1
  I  I129  1  0.47790970  0.03533124  0.23598818  1
  I  I130  1  0.49545329  0.50456601  0.78223525  1
  I  I131  1  0.47119481  0.49793645  0.25981190  1
  N  N132  1  0.30837193  0.28100098  0.83305082  1
  N  N133  1  0.31608567  0.27605049  0.20512596  1
  N  N134  1  0.27467540  0.69276854  0.83666862  1
  N  N135  1  0.27538914  0.68402468  0.20604434  1
  N  N136  1  0.72422609  0.18485561  0.16841900  1
  N  N137  1  0.71847834  0.17701697  0.79395945  1
  N  N138  1  0.81454474  0.73227828  0.16244281  1
  N  N139  1  0.82262042  0.72898307  0.78982433  1
