# generated using pymatgen
data_H14PbC8(I2N)2
_symmetry_space_group_name_H-M   'P 1'
_cell_length_a   12.63956380
_cell_length_b   12.43951152
_cell_length_c   11.59676941
_cell_angle_alpha   88.23435250
_cell_angle_beta   87.89807013
_cell_angle_gamma   88.23615825
_symmetry_Int_Tables_number   1
_chemical_formula_structural   H14PbC8(I2N)2
_chemical_formula_sum   'H56 Pb4 C32 I16 N8'
_cell_volume   1820.46552215
_cell_formula_units_Z   4
loop_
 _symmetry_equiv_pos_site_id
 _symmetry_equiv_pos_as_xyz
  1  'x, y, z'
loop_
 _atom_site_type_symbol
 _atom_site_label
 _atom_site_symmetry_multiplicity
 _atom_site_fract_x
 _atom_site_fract_y
 _atom_site_fract_z
 _atom_site_occupancy
  H  H0  1  0.35602211  0.06513698  0.42579960  1
  H  H1  1  0.24746852  0.01838363  0.51330996  1
  H  H2  1  0.22589548  0.07381143  0.37399773  1
  H  H3  1  0.22697046  0.12439494  0.67431288  1
  H  H4  1  0.16057682  0.37285739  0.81244921  1
  H  H5  1  0.27061283  0.29706624  0.84795347  1
  H  H6  1  0.15504264  0.24097969  0.82488460  1
  H  H7  1  0.23958072  0.47048775  0.64966533  1
  H  H8  1  0.27361050  0.46045506  0.43794255  1
  H  H9  1  0.32314518  0.35946866  0.27394370  1
  H  H10  1  0.34200600  0.21754930  0.28112937  1
  H  H11  1  0.13313130  0.33609701  0.25722818  1
  H  H12  1  0.20464730  0.27306686  0.15371455  1
  H  H13  1  0.14987209  0.20074107  0.26145354  1
  H  H14  1  0.06929697  0.64827519  0.42063334  1
  H  H15  1  0.01859768  0.75340520  0.50902018  1
  H  H16  1  0.07444980  0.78424437  0.37084490  1
  H  H17  1  0.11934140  0.77194446  0.66908862  1
  H  H18  1  0.35860517  0.84544146  0.80279502  1
  H  H19  1  0.28524774  0.73889436  0.84852376  1
  H  H20  1  0.22659309  0.85618544  0.80685217  1
  H  H21  1  0.45986544  0.75998085  0.64838657  1
  H  H22  1  0.45537670  0.71892283  0.44029459  1
  H  H23  1  0.35772630  0.66702314  0.27808270  1
  H  H24  1  0.21725606  0.66484352  0.28115647  1
  H  H25  1  0.34819194  0.86211138  0.25812809  1
  H  H26  1  0.28614931  0.80507955  0.15277892  1
  H  H27  1  0.21461695  0.86293489  0.25855956  1
  H  H28  1  0.93291510  0.14675492  0.58132341  1
  H  H29  1  0.97775053  0.25470946  0.49019170  1
  H  H30  1  0.91972127  0.28097298  0.62733428  1
  H  H31  1  0.87542119  0.26991141  0.32623204  1
  H  H32  1  0.63172721  0.33163572  0.18620692  1
  H  H33  1  0.70565853  0.21854242  0.15164031  1
  H  H34  1  0.76188765  0.33535596  0.17298828  1
  H  H35  1  0.53552725  0.25180940  0.34855536  1
  H  H36  1  0.54310058  0.21779625  0.56086000  1
  H  H37  1  0.64170517  0.16403651  0.72218974  1
  H  H38  1  0.78141523  0.14810010  0.71561660  1
  H  H39  1  0.66192023  0.35824109  0.74433586  1
  H  H40  1  0.71919845  0.28078883  0.84846792  1
  H  H41  1  0.79415081  0.34075798  0.74668866  1
  H  H42  1  0.85633977  0.93123666  0.57761523  1
  H  H43  1  0.75453986  0.98460114  0.48847127  1
  H  H44  1  0.72190544  0.92938083  0.62688335  1
  H  H45  1  0.73398192  0.87985275  0.32881939  1
  H  H46  1  0.66691027  0.63325254  0.19275664  1
  H  H47  1  0.76753624  0.71531491  0.15155250  1
  H  H48  1  0.64740963  0.76572465  0.19113215  1
  H  H49  1  0.73814459  0.53334729  0.35320815  1
  H  H50  1  0.77969580  0.54078858  0.56049396  1
  H  H51  1  0.83852680  0.64102318  0.71779638  1
  H  H52  1  0.84220973  0.78352654  0.71425612  1
  H  H53  1  0.64592119  0.65550015  0.74598816  1
  H  H54  1  0.71172810  0.71187490  0.85040175  1
  H  H55  1  0.65072502  0.79059382  0.75258269  1
  Pb  Pb56  1  0.00349015  1.00038772  0.01536331  1
  Pb  Pb57  1  -0.00459599  0.51740844  0.00591448  1
  Pb  Pb58  1  0.51056661  0.01054959  0.00291599  1
  Pb  Pb59  1  0.48764845  0.50109590  0.97878414  1
  C  C60  1  0.27253107  0.08173428  0.45127600  1
  C  C61  1  0.25903538  0.19056278  0.50267344  1
  C  C62  1  0.23873638  0.19764666  0.62175180  1
  C  C63  1  0.23104340  0.29745428  0.67187336  1
  C  C64  1  0.24494653  0.39297693  0.60836779  1
  C  C65  1  0.26329933  0.38647000  0.48951697  1
  C  C66  1  0.26883092  0.28688224  0.43577671  1
  C  C67  1  0.28832423  0.28430369  0.30681662  1
  C  C68  1  0.08256732  0.73070635  0.44743964  1
  C  C69  1  0.18823444  0.73867417  0.50044820  1
  C  C70  1  0.19250791  0.75974924  0.61794328  1
  C  C71  1  0.28952337  0.77001022  0.66814379  1
  C  C72  1  0.38477036  0.75354409  0.60682393  1
  C  C73  1  0.38134388  0.73137866  0.49006177  1
  C  C74  1  0.28449940  0.72642217  0.43574822  1
  C  C75  1  0.28505314  0.70993876  0.30768580  1
  C  C76  1  0.91476428  0.23007532  0.55192369  1
  C  C77  1  0.80875455  0.23886712  0.49791112  1
  C  C78  1  0.80307389  0.25803165  0.37863158  1
  C  C79  1  0.70533943  0.26284669  0.32769656  1
  C  C80  1  0.61104521  0.24788348  0.39081362  1
  C  C81  1  0.61605216  0.22962527  0.50949568  1
  C  C82  1  0.71353833  0.22560124  0.56355324  1
  C  C83  1  0.71508622  0.20209571  0.69148654  1
  C  C84  1  0.77503984  0.91960935  0.55038306  1
  C  C85  1  0.76452971  0.81166786  0.49806149  1
  C  C86  1  0.74360419  0.80597603  0.38079126  1
  C  C87  1  0.73185215  0.70675326  0.33169013  1
  C  C88  1  0.74526808  0.61038719  0.39387287  1
  C  C89  1  0.76756885  0.61542881  0.51029709  1
  C  C90  1  0.77502137  0.71448858  0.56346372  1
  C  C91  1  0.79581610  0.71508928  0.69035276  1
  I  I92  1  0.25274358  -0.00468090  0.00774779  1
  I  I93  1  0.23876342  0.58240767  0.98993185  1
  I  I94  1  0.74485389  0.09010975  0.99545246  1
  I  I95  1  0.74043927  0.48260718  0.98526257  1
  I  I96  1  0.01114237  0.25672740  0.01218102  1
  I  I97  1  0.90118777  0.76141582  0.99982845  1
  I  I98  1  0.41755681  0.26122381  0.99126533  1
  I  I99  1  0.50919485  0.75541340  0.00189081  1
  I  I100  1  0.03621597  0.98626015  0.74436347  1
  I  I101  1  0.02828420  0.01064219  0.28881262  1
  I  I102  1  0.99272522  0.48410222  0.73312385  1
  I  I103  1  0.00081930  0.48148781  0.28011582  1
  I  I104  1  0.51034179  0.97949666  0.73078951  1
  I  I105  1  0.51527001  0.96692558  0.27575819  1
  I  I106  1  0.52569935  0.49990689  0.70109135  1
  I  I107  1  0.50792393  0.49503872  0.25311564  1
  N  N108  1  0.20433871  0.30211829  0.79609337  1
  N  N109  1  0.18834370  0.27215921  0.24171017  1
  N  N110  1  0.29015291  0.80345844  0.78859669  1
  N  N111  1  0.28243328  0.81608443  0.24087378  1
  N  N112  1  0.70104895  0.28703600  0.20321165  1
  N  N113  1  0.72356985  0.30167320  0.76126756  1
  N  N114  1  0.70266884  0.70492490  0.21035708  1
  N  N115  1  0.69462857  0.71929728  0.76389089  1
