# generated using pymatgen
data_H16PbC11S(I2N)2
_symmetry_space_group_name_H-M   'P 1'
_cell_length_a   12.52195489
_cell_length_b   12.40430920
_cell_length_c   14.91747047
_cell_angle_alpha   90.58038553
_cell_angle_beta   87.72207421
_cell_angle_gamma   90.19109748
_symmetry_Int_Tables_number   1
_chemical_formula_structural   H16PbC11S(I2N)2
_chemical_formula_sum   'H64 Pb4 C44 S4 I16 N8'
_cell_volume   2315.11425980
_cell_formula_units_Z   4
loop_
 _symmetry_equiv_pos_site_id
 _symmetry_equiv_pos_as_xyz
  1  'x, y, z'
loop_
 _atom_site_type_symbol
 _atom_site_label
 _atom_site_symmetry_multiplicity
 _atom_site_fract_x
 _atom_site_fract_y
 _atom_site_fract_z
 _atom_site_occupancy
  H  H0  1  0.15359941  0.49454700  0.53503588  1
  H  H1  1  0.28384463  0.48990899  0.48420158  1
  H  H2  1  0.26661565  0.50836919  0.60221468  1
  H  H3  1  0.20604195  0.35870154  0.69947315  1
  H  H4  1  0.17958133  0.06672904  0.75298101  1
  H  H5  1  0.13168884  0.19575634  0.78481106  1
  H  H6  1  0.35896382  0.12360929  0.78963021  1
  H  H7  1  0.31505702  0.24729081  0.81907664  1
  H  H8  1  0.27204401  0.13908391  0.87570820  1
  H  H9  1  0.23592234  0.03130361  0.59940776  1
  H  H10  1  0.40198752  0.15439040  0.23374889  1
  H  H11  1  0.34894393  0.28650869  0.22330194  1
  H  H12  1  0.23220042  0.07845747  0.19810058  1
  H  H13  1  0.28512498  0.15971484  0.11755262  1
  H  H14  1  0.18044292  0.20142970  0.18154353  1
  H  H15  1  0.28327145  0.37529784  0.36402079  1
  H  H16  1  0.49226197  0.84663274  0.52755847  1
  H  H17  1  0.48585199  0.71617023  0.47876315  1
  H  H18  1  0.50096599  0.73157829  0.59624462  1
  H  H19  1  0.35182946  0.80407750  0.69421999  1
  H  H20  1  0.06099145  0.83072366  0.75538757  1
  H  H21  1  0.18863418  0.87942644  0.78257569  1
  H  H22  1  0.11621931  0.65026578  0.79337857  1
  H  H23  1  0.23892478  0.69459125  0.81776547  1
  H  H24  1  0.13244488  0.73743173  0.87788814  1
  H  H25  1  0.02935077  0.77072627  0.60376181  1
  H  H26  1  0.15165145  0.59833435  0.23717512  1
  H  H27  1  0.28775703  0.64082411  0.22608530  1
  H  H28  1  0.09805007  0.78214115  0.20372031  1
  H  H29  1  0.17400158  0.72177078  0.12158813  1
  H  H30  1  0.22855170  0.81736084  0.18772132  1
  H  H31  1  0.37510526  0.71106011  0.36219822  1
  H  H32  1  0.50837399  0.34736530  0.47110371  1
  H  H33  1  0.51338046  0.21443578  0.51289387  1
  H  H34  1  0.49679457  0.23654495  0.39674749  1
  H  H35  1  0.64913106  0.30325020  0.29927762  1
  H  H36  1  0.93991760  0.34386058  0.24504711  1
  H  H37  1  0.81048810  0.38536130  0.21661003  1
  H  H38  1  0.88360871  0.15690785  0.20827938  1
  H  H39  1  0.77036846  0.20607924  0.16759066  1
  H  H40  1  0.88836928  0.24237652  0.12192959  1
  H  H41  1  0.96981580  0.28111411  0.39507570  1
  H  H42  1  0.81531499  0.11942228  0.75917840  1
  H  H43  1  0.69571197  0.19420499  0.77460976  1
  H  H44  1  0.89005206  0.32739145  0.78146571  1
  H  H45  1  0.88368410  0.22567907  0.85461172  1
  H  H46  1  0.78729522  0.31892870  0.85551550  1
  H  H47  1  0.61810246  0.23327201  0.63174929  1
  H  H48  1  0.65001305  0.50809933  0.46881956  1
  H  H49  1  0.77878046  0.51798675  0.51365558  1
  H  H50  1  0.76516197  0.49876915  0.39660663  1
  H  H51  1  0.68550808  0.64536827  0.30494376  1
  H  H52  1  0.65782086  0.93503957  0.24841514  1
  H  H53  1  0.61472996  0.80262164  0.22167749  1
  H  H54  1  0.83943572  0.88216897  0.20745278  1
  H  H55  1  0.80279365  0.75550461  0.18465666  1
  H  H56  1  0.75766053  0.85846725  0.12291365  1
  H  H57  1  0.72419087  0.97344255  0.39914713  1
  H  H58  1  0.88695470  0.85560631  0.75850236  1
  H  H59  1  0.83889565  0.72113380  0.77007618  1
  H  H60  1  0.68307551  0.90291986  0.78812826  1
  H  H61  1  0.76844801  0.87935739  0.86973494  1
  H  H62  1  0.68243987  0.78522301  0.84086430  1
  H  H63  1  0.77761724  0.63011285  0.63110130  1
  Pb  Pb64  1  0.00237024  1.00396085  0.03068472  1
  Pb  Pb65  1  0.98046316  0.51873806  0.00422561  1
  Pb  Pb66  1  0.48796107  0.98323736  0.00237398  1
  Pb  Pb67  1  0.49872984  0.49743867  1.00260560  1
  C  C68  1  0.23564317  0.46587008  0.54374689  1
  C  C69  1  0.23684294  0.34617721  0.55757138  1
  C  C70  1  0.22053704  0.30345547  0.64278792  1
  C  C71  1  0.22041890  0.19157087  0.65826530  1
  C  C72  1  0.19910950  0.15277145  0.75188852  1
  C  C73  1  0.23638755  0.11806594  0.58764844  1
  C  C74  1  0.25355548  0.15958188  0.50140272  1
  C  C75  1  0.29256098  0.20400401  0.34105172  1
  C  C76  1  0.33015109  0.20405155  0.24529689  1
  C  C77  1  0.27487042  0.29491334  0.39226344  1
  C  C78  1  0.25334702  0.27260171  0.48512300  1
  C  C79  1  0.46143207  0.76431705  0.53807642  1
  C  C80  1  0.34230790  0.76534105  0.55445897  1
  C  C81  1  0.29811155  0.78709199  0.63971137  1
  C  C82  1  0.18674231  0.78891647  0.65789654  1
  C  C83  1  0.14630386  0.81169913  0.75186586  1
  C  C84  1  0.11559595  0.76968617  0.58987035  1
  C  C85  1  0.15850384  0.74779308  0.50361570  1
  C  C86  1  0.20589974  0.70030296  0.34439600  1
  C  C87  1  0.20681253  0.66558559  0.24858228  1
  C  C88  1  0.29499558  0.71851489  0.39266601  1
  C  C89  1  0.27099994  0.74525036  0.48473326  1
  C  C90  1  0.53778519  0.26534512  0.45593385  1
  C  C91  1  0.65656422  0.26606901  0.43888140  1
  C  C92  1  0.70189102  0.28606657  0.35410972  1
  C  C93  1  0.81356342  0.29241690  0.33838060  1
  C  C94  1  0.85562370  0.31968873  0.24597953  1
  C  C95  1  0.88347611  0.27644441  0.40761110  1
  C  C96  1  0.83908328  0.25621662  0.49338070  1
  C  C97  1  0.78616681  0.22921779  0.65461297  1
  C  C98  1  0.77940510  0.19931206  0.75068951  1
  C  C99  1  0.69913864  0.23804654  0.60294553  1
  C  C100  1  0.72639703  0.25257759  0.51003025  1
  C  C101  1  0.73128334  0.54000670  0.45647066  1
  C  C102  1  0.72901217  0.65935226  0.44202816  1
  C  C103  1  0.70463960  0.70114514  0.35922057  1
  C  C104  1  0.70301486  0.81293776  0.34322120  1
  C  C105  1  0.67970728  0.84960461  0.25036927  1
  C  C106  1  0.72490046  0.88685575  0.41137139  1
  C  C107  1  0.74755734  0.84606267  0.49570833  1
  C  C108  1  0.78649486  0.80131497  0.65401766  1
  C  C109  1  0.81783496  0.80255453  0.74897416  1
  C  C110  1  0.77192009  0.71055202  0.60318322  1
  C  C111  1  0.74966227  0.73316749  0.51202494  1
  S  S112  1  0.28188716  0.08593194  0.40370712  1
  S  S113  1  0.08749848  0.71612626  0.40915650  1
  S  S114  1  0.90676537  0.23697982  0.59161822  1
  S  S115  1  0.77528026  0.91942588  0.59214788  1
  I  I116  1  0.23659305  0.93626262  0.97085678  1
  I  I117  1  0.22884562  0.57346933  0.00722721  1
  I  I118  1  0.73419101  0.04997626  0.03264631  1
  I  I119  1  0.73976650  0.40761880  0.00612434  1
  I  I120  1  0.06362585  0.25927108  0.02688464  1
  I  I121  1  0.93252401  0.76370857  0.97323263  1
  I  I122  1  0.42601172  0.23225214  0.00824599  1
  I  I123  1  0.58638715  0.73934907  0.99813687  1
  I  I124  1  0.96879216  0.03075715  0.83060114  1
  I  I125  1  1.00146605  0.99767518  0.25381261  1
  I  I126  1  0.98841984  0.50412959  0.77695656  1
  I  I127  1  0.92848361  0.59603267  0.20586912  1
  I  I128  1  0.51242199  0.00238864  0.77793233  1
  I  I129  1  0.40265823  0.92258525  0.20298023  1
  I  I130  1  0.46674565  0.47766367  0.79217412  1
  I  I131  1  0.48358067  0.49535800  0.21975830  1
  N  N132  1  0.29156686  0.16786505  0.81213675  1
  N  N133  1  0.25028397  0.15774877  0.18259808  1
  N  N134  1  0.16051577  0.71795408  0.81340761  1
  N  N135  1  0.17366722  0.75370332  0.18672406  1
  N  N136  1  0.84779431  0.22541762  0.18260917  1
  N  N137  1  0.83795511  0.27256947  0.81335096  1
  N  N138  1  0.77546023  0.83502521  0.18712816  1
  N  N139  1  0.73300469  0.84480756  0.81480104  1
