# generated using pymatgen
data_H15PbC8I4N3
_symmetry_space_group_name_H-M   'P 1'
_cell_length_a   12.54924651
_cell_length_b   12.51557669
_cell_length_c   12.19793445
_cell_angle_alpha   89.17912715
_cell_angle_beta   89.10115769
_cell_angle_gamma   89.71997718
_symmetry_Int_Tables_number   1
_chemical_formula_structural   H15PbC8I4N3
_chemical_formula_sum   'H60 Pb4 C32 I16 N12'
_cell_volume   1915.36731442
_cell_formula_units_Z   4
loop_
 _symmetry_equiv_pos_site_id
 _symmetry_equiv_pos_as_xyz
  1  'x, y, z'
loop_
 _atom_site_type_symbol
 _atom_site_label
 _atom_site_symmetry_multiplicity
 _atom_site_fract_x
 _atom_site_fract_y
 _atom_site_fract_z
 _atom_site_occupancy
  H  H0  1  0.21853127  0.03903196  0.39148994  1
  H  H1  1  0.35257227  0.03749788  0.43509373  1
  H  H2  1  0.24679211  0.01746676  0.53276171  1
  H  H3  1  0.14476203  0.36545702  0.74605651  1
  H  H4  1  0.28269955  0.38676133  0.76525122  1
  H  H5  1  0.17558540  0.22629694  0.86026834  1
  H  H6  1  0.21293521  0.16688247  0.74012051  1
  H  H7  1  0.30533008  0.21257615  0.82606004  1
  H  H8  1  0.24808230  0.47678461  0.56160350  1
  H  H9  1  0.27820774  0.42903742  0.36504136  1
  H  H10  1  0.35492609  0.29248264  0.24323188  1
  H  H11  1  0.33623127  0.15339321  0.26959104  1
  H  H12  1  0.21989126  0.23058076  0.12884872  1
  H  H13  1  0.14967233  0.17196787  0.23026227  1
  H  H14  1  0.15659450  0.30624256  0.22230031  1
  H  H15  1  0.03940831  0.78758631  0.39096694  1
  H  H16  1  0.03772228  0.65005101  0.42897555  1
  H  H17  1  0.01583443  0.74934351  0.53035645  1
  H  H18  1  0.36279394  0.85437705  0.74136547  1
  H  H19  1  0.38387086  0.71627524  0.76740141  1
  H  H20  1  0.22998544  0.82175603  0.86416685  1
  H  H21  1  0.16462340  0.79826478  0.74660239  1
  H  H22  1  0.20779908  0.69537641  0.82559632  1
  H  H23  1  0.47374102  0.74673614  0.56386708  1
  H  H24  1  0.42838327  0.71517519  0.36784419  1
  H  H25  1  0.28989457  0.64391683  0.24483477  1
  H  H26  1  0.15197593  0.66735691  0.27132131  1
  H  H27  1  0.22138720  0.78570208  0.13162218  1
  H  H28  1  0.18214445  0.85867381  0.23729769  1
  H  H29  1  0.31285460  0.83624580  0.21483180  1
  H  H30  1  0.95821524  0.28890816  0.61134827  1
  H  H31  1  0.96251178  0.15361044  0.57031122  1
  H  H32  1  0.98126073  0.25789210  0.47076834  1
  H  H33  1  0.63706270  0.35317426  0.25294311  1
  H  H34  1  0.61421734  0.21460142  0.23628542  1
  H  H35  1  0.77452223  0.31627097  0.13878090  1
  H  H36  1  0.83395749  0.28730984  0.26105545  1
  H  H37  1  0.79133765  0.18836591  0.18218890  1
  H  H38  1  0.52340696  0.24865023  0.43960834  1
  H  H39  1  0.57029423  0.21750662  0.63623175  1
  H  H40  1  0.70898323  0.14399346  0.75871525  1
  H  H41  1  0.84687051  0.16627194  0.73168680  1
  H  H42  1  0.77059731  0.28222844  0.87253931  1
  H  H43  1  0.82220735  0.35471471  0.76948876  1
  H  H44  1  0.68969639  0.34100739  0.78204958  1
  H  H45  1  0.71991474  0.96221162  0.60561371  1
  H  H46  1  0.85642877  0.95943605  0.56538995  1
  H  H47  1  0.75627957  0.98376015  0.46537616  1
  H  H48  1  0.64416143  0.63400693  0.25731973  1
  H  H49  1  0.78224846  0.61381659  0.23202842  1
  H  H50  1  0.67670514  0.76900778  0.13549617  1
  H  H51  1  0.70033720  0.83283837  0.25456647  1
  H  H52  1  0.80233518  0.79141191  0.17585969  1
  H  H53  1  0.74868200  0.52401035  0.43670203  1
  H  H54  1  0.78064593  0.57120894  0.63183139  1
  H  H55  1  0.85757964  0.70752219  0.75165695  1
  H  H56  1  0.83830551  0.84656238  0.72563140  1
  H  H57  1  0.71919230  0.77583791  0.86835016  1
  H  H58  1  0.64912159  0.82574103  0.76511471  1
  H  H59  1  0.66290955  0.69182112  0.78075400  1
  Pb  Pb60  1  1.00806686  -0.00287098  0.99336267  1
  Pb  Pb61  1  0.99361891  0.50032173  0.00796858  1
  Pb  Pb62  1  0.51016088  0.00101318  0.00358520  1
  Pb  Pb63  1  0.49004273  0.49908020  0.99187689  1
  C  C64  1  0.27102213  0.06185637  0.45851532  1
  C  C65  1  0.26480710  0.17929708  0.47989571  1
  C  C66  1  0.24363525  0.30988388  0.61263421  1
  C  C67  1  0.22474214  0.33057798  0.73275429  1
  C  C68  1  0.25262181  0.39362006  0.53647084  1
  C  C69  1  0.26871800  0.36645422  0.42746866  1
  C  C70  1  0.27652251  0.25884878  0.39749691  1
  C  C71  1  0.30020905  0.23283713  0.27949037  1
  C  C72  1  0.06140572  0.73001769  0.45593949  1
  C  C73  1  0.17825095  0.73385673  0.47998740  1
  C  C74  1  0.30684036  0.75369009  0.61330619  1
  C  C75  1  0.32758618  0.77450675  0.73247241  1
  C  C76  1  0.39112356  0.74280669  0.53809930  1
  C  C77  1  0.36535741  0.72592475  0.42938799  1
  C  C78  1  0.25830158  0.72068854  0.39877872  1
  C  C79  1  0.23210488  0.70002027  0.28124813  1
  C  C80  1  0.93682008  0.23448859  0.54524070  1
  C  C81  1  0.81970449  0.23786331  0.52268741  1
  C  C82  1  0.68999719  0.25556989  0.38908882  1
  C  C83  1  0.67062673  0.27278285  0.26825326  1
  C  C84  1  0.60624956  0.24514501  0.46499632  1
  C  C85  1  0.63292372  0.22894754  0.57418145  1
  C  C86  1  0.74016488  0.22382580  0.60453211  1
  C  C87  1  0.76678786  0.20045214  0.72222605  1
  C  C88  1  0.77559045  0.93815367  0.53977036  1
  C  C89  1  0.76788581  0.82100218  0.51755079  1
  C  C90  1  0.74423187  0.69103756  0.38585889  1
  C  C91  1  0.72362860  0.66968292  0.26689874  1
  C  C92  1  0.75393556  0.60712469  0.46151296  1
  C  C93  1  0.77137262  0.63390088  0.56979340  1
  C  C94  1  0.77971478  0.74129390  0.59939332  1
  C  C95  1  0.80288083  0.76731531  0.71658598  1
  I  I96  1  0.25991458  0.99069727  0.99096688  1
  I  I97  1  0.24212029  0.52438268  0.97084091  1
  I  I98  1  0.75975341  1.00100176  1.00528154  1
  I  I99  1  0.74250065  0.48032751  0.02073104  1
  I  I100  1  0.00685190  0.24818603  0.98157062  1
  I  I101  1  -0.00247472  0.74875864  0.04013973  1
  I  I102  1  0.47933549  0.24944585  0.97554339  1
  I  I103  1  0.51371251  0.74886921  0.00672916  1
  I  I104  1  0.03636595  0.98856082  0.73583419  1
  I  I105  1  0.02797335  0.01141912  0.26191280  1
  I  I106  1  0.96883943  0.49798168  0.74496923  1
  I  I107  1  1.00838700  0.45215103  0.26656723  1
  I  I108  1  0.52922002  0.99066056  0.73879526  1
  I  I109  1  0.50449067  0.97019136  0.26356153  1
  I  I110  1  0.54425557  0.51176619  0.73167007  1
  I  I111  1  0.47127802  0.49881880  0.25105135  1
  N  N112  1  0.24830384  0.20690993  0.58517336  1
  N  N113  1  0.23029093  0.22748275  0.79546403  1
  N  N114  1  0.20088635  0.23601946  0.21102946  1
  N  N115  1  0.20427037  0.74982147  0.58523123  1
  N  N116  1  0.22585651  0.77168139  0.79733286  1
  N  N117  1  0.23802877  0.80134172  0.21242257  1
  N  N118  1  0.79258880  0.25341936  0.41729447  1
  N  N119  1  0.77418605  0.26498655  0.20684410  1
  N  N120  1  0.76160450  0.30017424  0.79046645  1
  N  N121  1  0.74992017  0.79405714  0.41292633  1
  N  N122  1  0.72636404  0.77200192  0.20277793  1
  N  N123  1  0.70270902  0.76446548  0.78683858  1
