# generated using pymatgen
data_H16PbC9(I2N)2
_symmetry_space_group_name_H-M   'P 1'
_cell_length_a   13.10334347
_cell_length_b   13.17894013
_cell_length_c   12.37228650
_cell_angle_alpha   90.56012952
_cell_angle_beta   91.52541190
_cell_angle_gamma   90.31985882
_symmetry_Int_Tables_number   1
_chemical_formula_structural   H16PbC9(I2N)2
_chemical_formula_sum   'H64 Pb4 C36 I16 N8'
_cell_volume   2135.65192386
_cell_formula_units_Z   4
loop_
 _symmetry_equiv_pos_site_id
 _symmetry_equiv_pos_as_xyz
  1  'x, y, z'
loop_
 _atom_site_type_symbol
 _atom_site_label
 _atom_site_symmetry_multiplicity
 _atom_site_fract_x
 _atom_site_fract_y
 _atom_site_fract_z
 _atom_site_occupancy
  H  H0  1  0.30970034  0.46437563  0.34130762  1
  H  H1  1  0.25061577  0.37738225  0.25024865  1
  H  H2  1  0.38123835  0.36292979  0.28955176  1
  H  H3  1  0.25141589  0.45064386  0.51840012  1
  H  H4  1  0.20806161  0.35041911  0.67703646  1
  H  H5  1  0.12389298  0.16997229  0.72506951  1
  H  H6  1  0.18562025  0.06338967  0.66957859  1
  H  H7  1  0.29155985  0.21789428  0.81220227  1
  H  H8  1  0.24430710  0.10756576  0.85085897  1
  H  H9  1  0.34003030  0.10917634  0.76463033  1
  H  H10  1  0.25046174  0.07462388  0.49411483  1
  H  H11  1  0.32561407  0.07958582  0.33010403  1
  H  H12  1  0.37548588  0.19144494  0.27481841  1
  H  H13  1  0.25712207  0.10691365  0.15633050  1
  H  H14  1  0.16178356  0.11664278  0.24361089  1
  H  H15  1  0.20980367  0.22008379  0.18585494  1
  H  H16  1  0.46263806  0.68671316  0.33993016  1
  H  H17  1  0.37969236  0.75401765  0.25239364  1
  H  H18  1  0.35663100  0.62410261  0.27878935  1
  H  H19  1  0.45113166  0.74656275  0.51852450  1
  H  H20  1  0.35264509  0.78701273  0.67925133  1
  H  H21  1  0.16933683  0.87074494  0.72942549  1
  H  H22  1  0.06334348  0.80369796  0.67319362  1
  H  H23  1  0.22629699  0.71361087  0.81597450  1
  H  H24  1  0.10995488  0.74665883  0.84976385  1
  H  H25  1  0.12573055  0.65049783  0.76181249  1
  H  H26  1  0.07280806  0.74907504  0.49204938  1
  H  H27  1  0.07441385  0.68073557  0.32025288  1
  H  H28  1  0.18594576  0.62947631  0.26580191  1
  H  H29  1  0.10953059  0.75123451  0.15056273  1
  H  H30  1  0.11955803  0.84411951  0.24383805  1
  H  H31  1  0.22410127  0.79348917  0.18883784  1
  H  H32  1  0.54025803  0.20123529  0.67014729  1
  H  H33  1  0.63040647  0.26523675  0.75459188  1
  H  H34  1  0.64514805  0.13387273  0.72412522  1
  H  H35  1  0.54670487  0.25917392  0.49196673  1
  H  H36  1  0.64114609  0.30310760  0.32865821  1
  H  H37  1  0.82612757  0.38910078  0.28248101  1
  H  H38  1  0.93140776  0.31758519  0.33061684  1
  H  H39  1  0.76743555  0.24432825  0.17808680  1
  H  H40  1  0.88714718  0.27389739  0.15080471  1
  H  H41  1  0.86316817  0.17264119  0.22732937  1
  H  H42  1  0.92532772  0.25324468  0.50283400  1
  H  H43  1  0.92582773  0.17741922  0.67039997  1
  H  H44  1  0.81377363  0.13512294  0.73190155  1
  H  H45  1  0.90274097  0.25319167  0.84408184  1
  H  H46  1  0.90415328  0.34331694  0.75073425  1
  H  H47  1  0.79508084  0.30955168  0.80811041  1
  H  H48  1  0.79783284  0.53905952  0.66912130  1
  H  H49  1  0.73433533  0.62501316  0.75331840  1
  H  H50  1  0.86567100  0.64373946  0.72470956  1
  H  H51  1  0.73635228  0.54899423  0.48878703  1
  H  H52  1  0.69447712  0.64566783  0.32490195  1
  H  H53  1  0.61730860  0.83180903  0.27014302  1
  H  H54  1  0.68847397  0.93514006  0.32441324  1
  H  H55  1  0.76540247  0.77215482  0.18016788  1
  H  H56  1  0.74238429  0.89200917  0.14991950  1
  H  H57  1  0.83873138  0.86581932  0.23635966  1
  H  H58  1  0.74465890  0.92518379  0.50385415  1
  H  H59  1  0.80933871  0.92397390  0.67767325  1
  H  H60  1  0.85869086  0.81350462  0.73788287  1
  H  H61  1  0.73390705  0.89445752  0.84442028  1
  H  H62  1  0.64131982  0.88056726  0.74976605  1
  H  H63  1  0.69136183  0.77964505  0.81239806  1
  Pb  Pb64  1  0.00445534  0.00297390  0.02396403  1
  Pb  Pb65  1  0.99684467  0.51531951  0.98340301  1
  Pb  Pb66  1  0.50110891  0.00889005  0.98845427  1
  Pb  Pb67  1  0.48782959  0.53561154  0.98403891  1
  C  C68  1  0.30553883  0.38382117  0.31898285  1
  C  C69  1  0.27554234  0.32142488  0.41396100  1
  C  C70  1  0.25143388  0.36805679  0.51222637  1
  C  C71  1  0.22782303  0.31114586  0.60249417  1
  C  C72  1  0.22673224  0.20511629  0.59699221  1
  C  C73  1  0.19592064  0.14351572  0.69187051  1
  C  C74  1  0.24986117  0.15747877  0.49945658  1
  C  C75  1  0.27394137  0.21439584  0.40859035  1
  C  C76  1  0.30728130  0.15818294  0.31027322  1
  C  C77  1  0.38214259  0.69625665  0.31622076  1
  C  C78  1  0.31982068  0.72465617  0.41200613  1
  C  C79  1  0.36798717  0.74683373  0.51199564  1
  C  C80  1  0.31209383  0.76864043  0.60337853  1
  C  C81  1  0.20542213  0.76957350  0.59745274  1
  C  C82  1  0.14481386  0.79757328  0.69415540  1
  C  C83  1  0.15620213  0.74909782  0.49800952  1
  C  C84  1  0.21201232  0.72711432  0.40579526  1
  C  C85  1  0.15448051  0.69744007  0.30408303  1
  C  C86  1  0.62193893  0.20735849  0.69015253  1
  C  C87  1  0.68096395  0.23269255  0.59171391  1
  C  C88  1  0.62991767  0.25696495  0.49442072  1
  C  C89  1  0.68309626  0.28015049  0.40185254  1
  C  C90  1  0.78992485  0.27913982  0.40400713  1
  C  C91  1  0.84977252  0.31362016  0.30988227  1
  C  C92  1  0.84186309  0.25426263  0.50008259  1
  C  C93  1  0.78865015  0.23159066  0.59335212  1
  C  C94  1  0.84865501  0.20000480  0.69181108  1
  C  C95  1  0.79120065  0.61967289  0.68964513  1
  C  C96  1  0.76337839  0.68020539  0.59129069  1
  C  C97  1  0.73901458  0.63169815  0.49246333  1
  C  C98  1  0.71680495  0.68667579  0.39926277  1
  C  C99  1  0.72028053  0.79290113  0.40208530  1
  C  C100  1  0.69218490  0.85405527  0.30465093  1
  C  C101  1  0.74291086  0.84225832  0.50035663  1
  C  C102  1  0.76308139  0.78725003  0.59458494  1
  C  C103  1  0.79130238  0.84491885  0.69597545  1
  I  I104  1  0.23580061  0.94004255  0.00133705  1
  I  I105  1  0.25164935  0.59352667  0.01132526  1
  I  I106  1  0.74737415  0.05093776  0.00649418  1
  I  I107  1  0.77867077  0.42751069  0.98238550  1
  I  I108  1  0.05740328  0.23455759  0.00861635  1
  I  I109  1  0.94202094  0.75261862  1.00117959  1
  I  I110  1  0.42857496  0.23092284  0.99872251  1
  I  I111  1  0.58952037  0.75198759  0.00208611  1
  I  I112  1  0.99219254  0.99751907  0.78344573  1
  I  I113  1  0.99785861  1.00009978  0.30171611  1
  I  I114  1  0.03814772  0.48155430  0.72038889  1
  I  I115  1  0.02732994  0.47932760  0.22301575  1
  I  I116  1  0.46998973  0.97196680  0.72236028  1
  I  I117  1  0.47444249  0.97882542  0.22852590  1
  I  I118  1  0.51203591  0.49892882  0.73968250  1
  I  I119  1  0.57237350  0.47998037  0.21801778  1
  N  N120  1  0.27223389  0.14586428  0.78487771  1
  N  N121  1  0.22881867  0.15093261  0.21885029  1
  N  N122  1  0.15293396  0.72278631  0.78513550  1
  N  N123  1  0.15264929  0.77706591  0.21715170  1
  N  N124  1  0.84057684  0.24610855  0.21072862  1
  N  N125  1  0.86217280  0.28091306  0.77752776  1
  N  N126  1  0.76505271  0.84443647  0.21281635  1
  N  N127  1  0.70971883  0.84914486  0.77939213  1
