# generated using pymatgen
data_H16PbC9(I2N)2
_symmetry_space_group_name_H-M   'P 1'
_cell_length_a   12.53013415
_cell_length_b   12.50291662
_cell_length_c   12.32656792
_cell_angle_alpha   89.99897959
_cell_angle_beta   90.00139591
_cell_angle_gamma   89.35266459
_symmetry_Int_Tables_number   1
_chemical_formula_structural   H16PbC9(I2N)2
_chemical_formula_sum   'H64 Pb4 C36 I16 N8'
_cell_volume   1930.99660238
_cell_formula_units_Z   4
loop_
 _symmetry_equiv_pos_site_id
 _symmetry_equiv_pos_as_xyz
  1  'x, y, z'
loop_
 _atom_site_type_symbol
 _atom_site_label
 _atom_site_symmetry_multiplicity
 _atom_site_fract_x
 _atom_site_fract_y
 _atom_site_fract_z
 _atom_site_occupancy
  H  H0  1  0.19211583  0.02718669  0.57117834  1
  H  H1  1  0.19211184  0.02718964  0.42882672  1
  H  H2  1  0.31519539  0.02293369  0.50000004  1
  H  H3  1  0.16527726  0.14185192  0.72600519  1
  H  H4  1  0.30129259  0.10982911  0.70018409  1
  H  H5  1  0.22402439  0.30350218  0.81841214  1
  H  H6  1  0.28461875  0.19451177  0.86617293  1
  H  H7  1  0.35001755  0.28019597  0.78449827  1
  H  H8  1  0.23919439  0.39477778  0.67255898  1
  H  H9  1  0.23733269  0.49192381  0.49999712  1
  H  H10  1  0.23919050  0.39477587  0.32744016  1
  H  H11  1  0.30128987  0.10982634  0.29982456  1
  H  H12  1  0.16527479  0.14184916  0.27399606  1
  H  H13  1  0.22402633  0.30349991  0.18158600  1
  H  H14  1  0.35001754  0.28018812  0.21550392  1
  H  H15  1  0.28461640  0.19450741  0.13383050  1
  H  H16  1  0.02783494  0.80858244  0.57119540  1
  H  H17  1  0.02783167  0.80858383  0.42880505  1
  H  H18  1  0.02596335  0.68525944  0.50000003  1
  H  H19  1  0.14235233  0.83593198  0.72563672  1
  H  H20  1  0.11075438  0.70078487  0.69913277  1
  H  H21  1  0.30223159  0.77401340  0.82003602  1
  H  H22  1  0.19371341  0.71408938  0.86541406  1
  H  H23  1  0.28123910  0.64815131  0.78428361  1
  H  H24  1  0.39542778  0.75989591  0.67279433  1
  H  H25  1  0.49256340  0.76120870  0.50000540  1
  H  H26  1  0.39543583  0.75989914  0.32721466  1
  H  H27  1  0.11076225  0.70078626  0.30086264  1
  H  H28  1  0.14236143  0.83593035  0.27435985  1
  H  H29  1  0.30223936  0.77401874  0.17996719  1
  H  H30  1  0.28125421  0.64815256  0.21572325  1
  H  H31  1  0.19372288  0.71408709  0.13458514  1
  H  H32  1  0.97322834  0.30981075  0.42889114  1
  H  H33  1  0.97323056  0.30981012  0.57110975  1
  H  H34  1  0.97531639  0.18639538  0.50000178  1
  H  H35  1  0.85969939  0.33962264  0.27640405  1
  H  H36  1  0.88853444  0.20187620  0.29802242  1
  H  H37  1  0.69728770  0.28814434  0.18286557  1
  H  H38  1  0.80394017  0.22507823  0.13271213  1
  H  H39  1  0.71641828  0.16034194  0.21294688  1
  H  H40  1  0.60547119  0.26442816  0.32753355  1
  H  H41  1  0.50863432  0.26607394  0.49999243  1
  H  H42  1  0.60546554  0.26443646  0.67245303  1
  H  H43  1  0.88852609  0.20188216  0.70198569  1
  H  H44  1  0.85968636  0.33962639  0.72359849  1
  H  H45  1  0.69727348  0.28814709  0.81712606  1
  H  H46  1  0.71640089  0.16034351  0.78704421  1
  H  H47  1  0.80392344  0.22507627  0.86728706  1
  H  H48  1  0.69140207  0.97362990  0.42892093  1
  H  H49  1  0.69140086  0.97362831  0.57107532  1
  H  H50  1  0.81464357  0.97317630  0.50000526  1
  H  H51  1  0.66189565  0.86074753  0.27638144  1
  H  H52  1  0.79843422  0.88750965  0.29943751  1
  H  H53  1  0.71503816  0.69843235  0.18114911  1
  H  H54  1  0.77843951  0.80447136  0.13356565  1
  H  H55  1  0.84213613  0.71426851  0.21361731  1
  H  H56  1  0.73552035  0.60421349  0.32734687  1
  H  H57  1  0.73310635  0.50701132  0.50000968  1
  H  H58  1  0.73551646  0.60421533  0.67266465  1
  H  H59  1  0.79842184  0.88751665  0.70056491  1
  H  H60  1  0.66188719  0.86074869  0.72362031  1
  H  H61  1  0.71504135  0.69843743  0.81886024  1
  H  H62  1  0.84213496  0.71428276  0.78639252  1
  H  H63  1  0.77843567  0.80448030  0.86643980  1
  Pb  Pb64  1  0.00426022  0.00184335  0.99998064  1
  Pb  Pb65  1  0.99367542  0.50185589  0.99999456  1
  Pb  Pb66  1  0.50387264  1.00139926  0.99999553  1
  Pb  Pb67  1  0.49410087  0.50262815  0.00000521  1
  C  C68  1  0.23422887  0.05836096  0.50000001  1
  C  C69  1  0.23708128  0.17904880  0.50000007  1
  C  C70  1  0.23884304  0.23696141  0.59834163  1
  C  C71  1  0.24297147  0.17609598  0.70380592  1
  C  C72  1  0.23791968  0.34885057  0.59744970  1
  C  C73  1  0.23694365  0.40485707  0.49999310  1
  C  C74  1  0.23791667  0.34885353  0.40255397  1
  C  C75  1  0.23884075  0.23696002  0.40165896  1
  C  C76  1  0.24297029  0.17609121  0.29619585  1
  C  C77  1  0.05976121  0.76628762  0.49999804  1
  C  C78  1  0.18033478  0.76292135  0.49999182  1
  C  C79  1  0.23817050  0.76087009  0.59833029  1
  C  C80  1  0.17703312  0.75754329  0.70339443  1
  C  C81  1  0.34980803  0.76105743  0.59749658  1
  C  C82  1  0.40568996  0.76174316  0.50001151  1
  C  C83  1  0.34981515  0.76105980  0.40250692  1
  C  C84  1  0.23815944  0.76087017  0.40168489  1
  C  C85  1  0.17703897  0.75754291  0.29660829  1
  C  C86  1  0.94133334  0.26812805  0.50000052  1
  C  C87  1  0.82090196  0.26628766  0.50000230  1
  C  C88  1  0.76306078  0.26462379  0.40170031  1
  C  C89  1  0.82375966  0.26191822  0.29627274  1
  C  C90  1  0.65140463  0.26487801  0.40258895  1
  C  C91  1  0.59550316  0.26553218  0.49998660  1
  C  C92  1  0.65140232  0.26488210  0.59740558  1
  C  C93  1  0.76306240  0.26462600  0.59828791  1
  C  C94  1  0.82374864  0.26192179  0.70372623  1
  C  C95  1  0.73314971  0.94079221  0.50000600  1
  C  C96  1  0.73481212  0.81996380  0.50000914  1
  C  C97  1  0.73617788  0.76194512  0.40172558  1
  C  C98  1  0.73937529  0.82317151  0.29665490  1
  C  C99  1  0.73511198  0.65006615  0.40254310  1
  C  C100  1  0.73405698  0.59405638  0.50001498  1
  C  C101  1  0.73511023  0.65005948  0.59746525  1
  C  C102  1  0.73617364  0.76195191  0.59827729  1
  C  C103  1  0.73936820  0.82318148  0.70335328  1
  I  I104  1  0.25286539  0.04572224  0.99998929  1
  I  I105  1  0.23940050  0.44612793  0.00000287  1
  I  I106  1  0.75462503  0.95620473  0.00000233  1
  I  I107  1  0.74107113  0.55669713  0.99999099  1
  I  I108  1  0.95340375  0.25044317  0.99999202  1
  I  I109  1  0.04426861  0.75118866  0.00000007  1
  I  I110  1  0.55041487  0.25472664  0.00000254  1
  I  I111  1  0.44059524  0.75657339  0.99999455  1
  I  I112  1  0.98649046  0.00176898  0.74141915  1
  I  I113  1  0.98649612  0.00176572  0.25853515  1
  I  I114  1  0.98794284  0.52359841  0.74239346  1
  I  I115  1  0.98792803  0.52360110  0.25759626  1
  I  I116  1  0.50912265  0.02527659  0.74294291  1
  I  I117  1  0.50910241  0.02525159  0.25704979  1
  I  I118  1  0.46729237  0.49640959  0.74403485  1
  I  I119  1  0.46729464  0.49641915  0.25596944  1
  N  N120  1  0.27753597  0.24340605  0.79782640  1
  N  N121  1  0.27753570  0.24340132  0.20217462  1
  N  N122  1  0.24329825  0.72116198  0.79785351  1
  N  N123  1  0.24330814  0.72116393  0.20215100  1
  N  N124  1  0.75547336  0.23197975  0.20139614  1
  N  N125  1  0.75545864  0.23198142  0.79859764  1
  N  N126  1  0.77070850  0.75529130  0.20151347  1
  N  N127  1  0.77070815  0.75529857  0.79849610  1
