# generated using pymatgen
data_H14PbC8(I2N)2
_symmetry_space_group_name_H-M   'P 1'
_cell_length_a   13.12391455
_cell_length_b   13.06070953
_cell_length_c   10.83481212
_cell_angle_alpha   89.85082341
_cell_angle_beta   89.88577594
_cell_angle_gamma   90.00374494
_symmetry_Int_Tables_number   1
_chemical_formula_structural   H14PbC8(I2N)2
_chemical_formula_sum   'H56 Pb4 C32 I16 N8'
_cell_volume   1857.15954200
_cell_formula_units_Z   4
loop_
 _symmetry_equiv_pos_site_id
 _symmetry_equiv_pos_as_xyz
  1  'x, y, z'
loop_
 _atom_site_type_symbol
 _atom_site_label
 _atom_site_symmetry_multiplicity
 _atom_site_fract_x
 _atom_site_fract_y
 _atom_site_fract_z
 _atom_site_occupancy
  H  H0  1  0.19198178  0.15635792  0.79191587  1
  H  H1  1  0.31858770  0.16061106  0.80797463  1
  H  H2  1  0.25951127  0.04901989  0.80717750  1
  H  H3  1  0.34261430  0.07485424  0.61213067  1
  H  H4  1  0.20824853  0.05888879  0.60025526  1
  H  H5  1  0.29027619  0.30954789  0.72369960  1
  H  H6  1  0.27527346  0.47076857  0.61127345  1
  H  H7  1  0.23422610  0.47090028  0.38571645  1
  H  H8  1  0.21702385  0.30984099  0.27427121  1
  H  H9  1  0.16465378  0.07343850  0.38270065  1
  H  H10  1  0.29867772  0.05947721  0.40172169  1
  H  H11  1  0.32375966  0.15426409  0.21014234  1
  H  H12  1  0.25351440  0.04969999  0.19169752  1
  H  H13  1  0.19811885  0.16328275  0.18988052  1
  H  H14  1  0.15650416  0.80885348  0.79182872  1
  H  H15  1  0.16031260  0.68158362  0.80889975  1
  H  H16  1  0.04945148  0.74139808  0.80660870  1
  H  H17  1  0.07557048  0.65744171  0.61268410  1
  H  H18  1  0.06013054  0.79250000  0.59968023  1
  H  H19  1  0.30909913  0.70952416  0.72435653  1
  H  H20  1  0.46982063  0.72310076  0.61172959  1
  H  H21  1  0.47009398  0.76445414  0.38593799  1
  H  H22  1  0.30976380  0.78272696  0.27436987  1
  H  H23  1  0.07443385  0.83545968  0.38290211  1
  H  H24  1  0.06069775  0.70073214  0.40208082  1
  H  H25  1  0.15446239  0.67617487  0.21014093  1
  H  H26  1  0.05037451  0.74700470  0.19236704  1
  H  H27  1  0.16344106  0.80252156  0.18970784  1
  H  H28  1  0.84663047  0.32479713  0.21134033  1
  H  H29  1  0.83674554  0.19868596  0.18985928  1
  H  H30  1  0.95026056  0.25363554  0.19159791  1
  H  H31  1  0.92572898  0.16405329  0.38246426  1
  H  H32  1  0.94004966  0.29866019  0.40170035  1
  H  H33  1  0.69083317  0.21739484  0.27469943  1
  H  H34  1  0.53026703  0.23622881  0.38641618  1
  H  H35  1  0.53021431  0.27772736  0.61194972  1
  H  H36  1  0.69068124  0.29056699  0.72422915  1
  H  H37  1  0.92489863  0.34207235  0.61127369  1
  H  H38  1  0.93982336  0.20687740  0.59972998  1
  H  H39  1  0.84377900  0.19118238  0.79206964  1
  H  H40  1  0.94998441  0.26019481  0.80656175  1
  H  H41  1  0.83828720  0.31846811  0.80656006  1
  H  H42  1  0.67572407  0.84570948  0.21120697  1
  H  H43  1  0.80142281  0.83647708  0.18962836  1
  H  H44  1  0.74623689  0.95021408  0.19107158  1
  H  H45  1  0.83501339  0.92631075  0.38174189  1
  H  H46  1  0.70097269  0.94047694  0.40138233  1
  H  H47  1  0.78297310  0.69033027  0.27504933  1
  H  H48  1  0.76359266  0.52890319  0.38680411  1
  H  H49  1  0.72124286  0.52883707  0.61222658  1
  H  H50  1  0.70892423  0.69028506  0.72457657  1
  H  H51  1  0.65822049  0.92550077  0.61258430  1
  H  H52  1  0.79283864  0.94027493  0.60013990  1
  H  H53  1  0.80845596  0.84320860  0.79213618  1
  H  H54  1  0.74025045  0.95004819  0.80733537  1
  H  H55  1  0.68172467  0.83797255  0.80763388  1
  Pb  Pb56  1  0.00335156  0.00018887  0.97281538  1
  Pb  Pb57  1  0.00331189  0.50831170  0.01287848  1
  Pb  Pb58  1  0.50664794  0.01020750  0.01289927  1
  Pb  Pb59  1  0.54703623  0.51946598  0.01998943  1
  C  C60  1  0.26852595  0.11210891  0.62889756  1
  C  C61  1  0.26027939  0.21353071  0.56395613  1
  C  C62  1  0.27168261  0.30664116  0.62553261  1
  C  C63  1  0.26311548  0.39935798  0.56189188  1
  C  C64  1  0.24191673  0.39936015  0.43631304  1
  C  C65  1  0.23226112  0.30666984  0.37326709  1
  C  C66  1  0.24323812  0.21345766  0.43512102  1
  C  C67  1  0.23862235  0.11185553  0.36985171  1
  C  C68  1  0.11283772  0.73181783  0.62901215  1
  C  C69  1  0.21386718  0.73959577  0.56425645  1
  C  C70  1  0.30645138  0.72773120  0.62595981  1
  C  C71  1  0.39878040  0.73547311  0.56224100  1
  C  C72  1  0.39884995  0.75673788  0.43649939  1
  C  C73  1  0.30666996  0.76705571  0.37338061  1
  C  C74  1  0.21386771  0.75647327  0.43526819  1
  C  C75  1  0.11273855  0.76122288  0.37003684  1
  C  C76  1  0.88779932  0.23851540  0.36985332  1
  C  C77  1  0.78651512  0.24358922  0.43520889  1
  C  C78  1  0.69376496  0.23321859  0.37357999  1
  C  C79  1  0.60144276  0.24374897  0.43676317  1
  C  C80  1  0.60133412  0.26509577  0.56239183  1
  C  C81  1  0.69355717  0.27259955  0.62584773  1
  C  C82  1  0.78630611  0.26047538  0.56404886  1
  C  C83  1  0.88731002  0.26787644  0.62841466  1
  C  C84  1  0.76098115  0.88801678  0.36955772  1
  C  C85  1  0.75603677  0.78641500  0.43539835  1
  C  C86  1  0.76649642  0.69318639  0.37384434  1
  C  C87  1  0.75561870  0.60043686  0.43704139  1
  C  C88  1  0.73390609  0.60032301  0.56265580  1
  C  C89  1  0.72674877  0.69301051  0.62610259  1
  C  C90  1  0.73913502  0.78621250  0.56430368  1
  C  C91  1  0.73201747  0.88756611  0.62906688  1
  I  I92  1  0.23657752  0.91654689  0.99539338  1
  I  I93  1  0.22628395  0.58266551  0.00320811  1
  I  I94  1  0.75899509  0.08201301  0.99619442  1
  I  I95  1  0.76629462  0.40869619  0.00305829  1
  I  I96  1  0.08211590  0.23757788  0.99463373  1
  I  I97  1  0.91590355  0.75878239  0.99699579  1
  I  I98  1  0.41454744  0.22759892  0.00271634  1
  I  I99  1  0.58607534  0.76351455  0.00343983  1
  I  I100  1  0.99970185  0.99994682  0.67649310  1
  I  I101  1  0.99938411  0.99983088  0.25724894  1
  I  I102  1  0.99667325  0.50047981  0.72850526  1
  I  I103  1  0.99864137  0.49969946  0.30378733  1
  I  I104  1  0.49852067  0.99589999  0.72901018  1
  I  I105  1  0.49963725  0.99954910  0.30333164  1
  I  I106  1  0.48646431  0.49517177  0.74909725  1
  I  I107  1  0.48443381  0.49512830  0.28731558  1
  N  N108  1  0.25897428  0.12069804  0.76568763  1
  N  N109  1  0.25421063  0.12091666  0.23370634  1
  N  N110  1  0.12097879  0.74159142  0.76578888  1
  N  N111  1  0.12144354  0.74601545  0.23391532  1
  N  N112  1  0.87926790  0.25455872  0.23379692  1
  N  N113  1  0.87871405  0.25868336  0.76526054  1
  N  N114  1  0.74536987  0.87893273  0.23353236  1
  N  N115  1  0.74129821  0.87849993  0.76591513  1
