# generated using pymatgen
data_H15PbC9I4N2F
_symmetry_space_group_name_H-M   'P 1'
_cell_length_a   12.42363290
_cell_length_b   12.40223698
_cell_length_c   12.93190930
_cell_angle_alpha   90.26075053
_cell_angle_beta   90.04559690
_cell_angle_gamma   88.80839088
_symmetry_Int_Tables_number   1
_chemical_formula_structural   H15PbC9I4N2F
_chemical_formula_sum   'H60 Pb4 C36 I16 N8 F4'
_cell_volume   1992.10740927
_cell_formula_units_Z   4
loop_
 _symmetry_equiv_pos_site_id
 _symmetry_equiv_pos_as_xyz
  1  'x, y, z'
loop_
 _atom_site_type_symbol
 _atom_site_label
 _atom_site_symmetry_multiplicity
 _atom_site_fract_x
 _atom_site_fract_y
 _atom_site_fract_z
 _atom_site_occupancy
  H  H0  1  0.24752430  0.49156856  0.51844115  1
  H  H1  1  0.12581287  0.45784942  0.58164684  1
  H  H2  1  0.25019889  0.44789912  0.64827566  1
  H  H3  1  0.13145858  0.32159203  0.72589932  1
  H  H4  1  0.12768112  0.17888892  0.73776946  1
  H  H5  1  0.24477568  0.24860516  0.86072263  1
  H  H6  1  0.31988642  0.31415981  0.77552377  1
  H  H7  1  0.32283879  0.17914087  0.77626055  1
  H  H8  1  0.20296747  0.05764777  0.61003433  1
  H  H9  1  0.24924339  0.02631986  0.42548499  1
  H  H10  1  0.37853241  0.20723311  0.26882502  1
  H  H11  1  0.29270490  0.09635032  0.25600757  1
  H  H12  1  0.22138045  0.32450744  0.22688559  1
  H  H13  1  0.26780088  0.24456816  0.13241469  1
  H  H14  1  0.15248192  0.21464149  0.19349790  1
  H  H15  1  0.49588650  0.75131463  0.51919858  1
  H  H16  1  0.45847562  0.87100653  0.58729008  1
  H  H17  1  0.45189358  0.74386338  0.64914077  1
  H  H18  1  0.32670401  0.85743004  0.73085316  1
  H  H19  1  0.18528186  0.87535872  0.74077465  1
  H  H20  1  0.24917766  0.75173235  0.86469407  1
  H  H21  1  0.30554255  0.66689162  0.77750514  1
  H  H22  1  0.17173324  0.68451134  0.78309649  1
  H  H23  1  0.06129246  0.79435399  0.61417659  1
  H  H24  1  0.03216112  0.74729779  0.42955305  1
  H  H25  1  0.20718753  0.61298991  0.27878288  1
  H  H26  1  0.10126887  0.70798362  0.26068182  1
  H  H27  1  0.33233371  0.75079405  0.22242689  1
  H  H28  1  0.24469122  0.70856892  0.13395848  1
  H  H29  1  0.22818946  0.83114975  0.18672813  1
  H  H30  1  0.50795246  0.25129874  0.48269265  1
  H  H31  1  0.54056691  0.37296320  0.41914330  1
  H  H32  1  0.55042162  0.24881287  0.35168061  1
  H  H33  1  0.67328227  0.35978546  0.27042267  1
  H  H34  1  0.81458117  0.37327855  0.26016584  1
  H  H35  1  0.75378533  0.25249917  0.13551867  1
  H  H36  1  0.69257949  0.17115479  0.22034855  1
  H  H37  1  0.82716143  0.17779482  0.21993425  1
  H  H38  1  0.94004984  0.29190564  0.38368250  1
  H  H39  1  0.97324754  0.24612688  0.56770092  1
  H  H40  1  0.79433478  0.12249031  0.72907455  1
  H  H41  1  0.90614518  0.20708578  0.73802133  1
  H  H42  1  0.68061651  0.28255564  0.77285064  1
  H  H43  1  0.76273360  0.23518505  0.86469865  1
  H  H44  1  0.79343032  0.34936256  0.80186720  1
  H  H45  1  0.74438513  0.50888595  0.48038856  1
  H  H46  1  0.62506363  0.54844351  0.41276422  1
  H  H47  1  0.75214432  0.55425686  0.35121694  1
  H  H48  1  0.62999287  0.68253886  0.27507658  1
  H  H49  1  0.61808163  0.82525477  0.26644604  1
  H  H50  1  0.73249908  0.75665549  0.13748975  1
  H  H51  1  0.81775524  0.69519685  0.22049268  1
  H  H52  1  0.80759413  0.82983090  0.21762702  1
  H  H53  1  0.70723673  0.94506908  0.39052069  1
  H  H54  1  0.75595961  0.97216756  0.57451426  1
  H  H55  1  0.88297066  0.78928442  0.72785780  1
  H  H56  1  0.79405440  0.90087494  0.74354595  1
  H  H57  1  0.73532813  0.67290475  0.77809448  1
  H  H58  1  0.77872045  0.75795444  0.86911930  1
  H  H59  1  0.66027401  0.78166673  0.81116340  1
  Pb  Pb60  1  0.00313365  0.00755835  0.00660187  1
  Pb  Pb61  1  0.98461642  0.50628269  0.00576155  1
  Pb  Pb62  1  0.50161414  0.01637202  0.99673734  1
  Pb  Pb63  1  0.49168113  0.51036343  0.99857219  1
  C  C64  1  0.21151410  0.43553359  0.57294064  1
  C  C65  1  0.22428591  0.32105661  0.53636409  1
  C  C66  1  0.20872666  0.23091285  0.60053776  1
  C  C67  1  0.17720146  0.24618601  0.71216241  1
  C  C68  1  0.21813723  0.12608566  0.55986165  1
  C  C69  1  0.24325886  0.10831859  0.45605579  1
  C  C70  1  0.26054138  0.19566858  0.39042803  1
  C  C71  1  0.29542512  0.18100801  0.28011888  1
  C  C72  1  0.25033018  0.29857418  0.43373848  1
  C  C73  1  0.43894693  0.78573453  0.57540296  1
  C  C74  1  0.32501645  0.77507094  0.53888349  1
  C  C75  1  0.23471374  0.78863891  0.60414699  1
  C  C76  1  0.24962689  0.81878063  0.71598193  1
  C  C77  1  0.13040566  0.77963096  0.56368815  1
  C  C78  1  0.11367704  0.75500963  0.45968903  1
  C  C79  1  0.20150790  0.73925755  0.39295375  1
  C  C80  1  0.18562123  0.69931181  0.28430146  1
  C  C81  1  0.30370539  0.75171006  0.43554507  1
  C  C82  1  0.56307055  0.28716538  0.42720076  1
  C  C83  1  0.67785750  0.27397902  0.46170968  1
  C  C84  1  0.76702514  0.28750148  0.39578723  1
  C  C85  1  0.75091583  0.31855084  0.28430395  1
  C  C86  1  0.87213993  0.27789923  0.43490252  1
  C  C87  1  0.89111362  0.25375565  0.53850695  1
  C  C88  1  0.80467576  0.23876475  0.60582905  1
  C  C89  1  0.82116153  0.20521017  0.71595638  1
  C  C90  1  0.70142426  0.24992568  0.56440893  1
  C  C91  1  0.71033546  0.56682081  0.42521103  1
  C  C92  1  0.72224674  0.68025629  0.46313054  1
  C  C93  1  0.70777228  0.77142800  0.39938725  1
  C  C94  1  0.67217780  0.75814533  0.28882132  1
  C  C95  1  0.72047062  0.87530926  0.44030250  1
  C  C96  1  0.74663603  0.89077036  0.54404167  1
  C  C97  1  0.76089466  0.80226077  0.60984923  1
  C  C98  1  0.79856667  0.81618598  0.71933025  1
  C  C99  1  0.74753194  0.70033367  0.56623728  1
  I  I100  1  0.25338074  0.93869069  0.00641513  1
  I  I101  1  0.23369184  0.55981232  0.00589562  1
  I  I102  1  0.75144555  0.05533620  0.96447901  1
  I  I103  1  0.73736764  0.43065727  0.01380740  1
  I  I104  1  0.05924889  0.25581146  0.98640065  1
  I  I105  1  0.93459105  0.75899238  0.99859254  1
  I  I106  1  0.42621184  0.26077128  0.01172490  1
  I  I107  1  0.56036888  0.75893811  0.00743475  1
  I  I108  1  0.01613952  0.99556501  0.76254994  1
  I  I109  1  0.97474157  0.01944661  0.25601214  1
  I  I110  1  0.97364725  0.51290030  0.76143647  1
  I  I111  1  0.96956989  0.51970099  0.25463513  1
  I  I112  1  0.47753874  0.03752224  0.75407123  1
  I  I113  1  0.54914272  0.03429770  0.24203970  1
  I  I114  1  0.45645490  0.51251498  0.74603462  1
  I  I115  1  0.46781966  0.51389797  0.23574303  1
  N  N116  1  0.27217961  0.24733118  0.78486699  1
  N  N117  1  0.22850356  0.24492261  0.20413176  1
  N  N118  1  0.24371987  0.72441394  0.78896789  1
  N  N119  1  0.25184550  0.75262207  0.20314744  1
  N  N120  1  0.75673425  0.22394363  0.21086492  1
  N  N121  1  0.76054279  0.27389011  0.79311240  1
  N  N122  1  0.76386455  0.75993625  0.21215869  1
  N  N123  1  0.73785218  0.75326211  0.79841707  1
  F  F124  1  0.26701105  0.38442823  0.36857458  1
  F  F125  1  0.39070634  0.73951124  0.36993147  1
  F  F126  1  0.61664556  0.23657962  0.63159729  1
  F  F127  1  0.75976968  0.61297656  0.63089687  1
