# generated using pymatgen
data_H15PbC8I4N3
_symmetry_space_group_name_H-M   'P 1'
_cell_length_a   12.72804783
_cell_length_b   12.61483913
_cell_length_c   12.31260025
_cell_angle_alpha   88.83695617
_cell_angle_beta   88.59538542
_cell_angle_gamma   90.67307726
_symmetry_Int_Tables_number   1
_chemical_formula_structural   H15PbC8I4N3
_chemical_formula_sum   'H60 Pb4 C32 I16 N12'
_cell_volume   1975.78963860
_cell_formula_units_Z   4
loop_
 _symmetry_equiv_pos_site_id
 _symmetry_equiv_pos_as_xyz
  1  'x, y, z'
loop_
 _atom_site_type_symbol
 _atom_site_label
 _atom_site_symmetry_multiplicity
 _atom_site_fract_x
 _atom_site_fract_y
 _atom_site_fract_z
 _atom_site_occupancy
  H  H0  1  0.26701807  0.02596768  0.39832704  1
  H  H1  1  0.21704705  0.10356388  0.29125656  1
  H  H2  1  0.35419031  0.10595389  0.31649684  1
  H  H3  1  0.23899500  0.09053786  0.57586523  1
  H  H4  1  0.14131700  0.20490562  0.75236150  1
  H  H5  1  0.27575953  0.17818840  0.76836188  1
  H  H6  1  0.18136540  0.39433316  0.76313809  1
  H  H7  1  0.30743667  0.36851716  0.78980044  1
  H  H8  1  0.20913093  0.32384168  0.87565838  1
  H  H9  1  0.26918521  0.46193642  0.45121057  1
  H  H10  1  0.31746811  0.41338365  0.27434702  1
  H  H11  1  0.35135458  0.28189187  0.24296950  1
  H  H12  1  0.21131147  0.34990198  0.13495148  1
  H  H13  1  0.16610659  0.24570784  0.20668152  1
  H  H14  1  0.13213380  0.36859091  0.24192388  1
  H  H15  1  0.03043478  0.73789728  0.39637796  1
  H  H16  1  0.11207048  0.78972394  0.29012889  1
  H  H17  1  0.10768047  0.65114637  0.31777030  1
  H  H18  1  0.09239687  0.76273087  0.57509563  1
  H  H19  1  0.20318282  0.85397078  0.75039486  1
  H  H20  1  0.17363999  0.71710274  0.76912712  1
  H  H21  1  0.38873067  0.81484844  0.76794165  1
  H  H22  1  0.36073627  0.68646642  0.79690874  1
  H  H23  1  0.31599830  0.78321434  0.87948919  1
  H  H24  1  0.46095150  0.72495140  0.45778963  1
  H  H25  1  0.41211978  0.67160760  0.28337270  1
  H  H26  1  0.27952463  0.64739903  0.25061139  1
  H  H27  1  0.35867496  0.78186099  0.13674632  1
  H  H28  1  0.26290436  0.83708430  0.20704470  1
  H  H29  1  0.38865060  0.85923665  0.23948054  1
  H  H30  1  0.96907816  0.23310363  0.60187115  1
  H  H31  1  0.88932458  0.27812959  0.71015895  1
  H  H32  1  0.89091114  0.14167399  0.67951506  1
  H  H33  1  0.90649158  0.25544675  0.42223814  1
  H  H34  1  0.79188483  0.35299851  0.24256454  1
  H  H35  1  0.82301225  0.21653928  0.23215804  1
  H  H36  1  0.60743567  0.30581043  0.23234074  1
  H  H37  1  0.63521306  0.17764616  0.21174739  1
  H  H38  1  0.67614572  0.27194713  0.12042621  1
  H  H39  1  0.53753067  0.23187008  0.54608283  1
  H  H40  1  0.58488008  0.17215989  0.71903588  1
  H  H41  1  0.71561993  0.14166092  0.75097982  1
  H  H42  1  0.64025250  0.27277200  0.86496963  1
  H  H43  1  0.74420715  0.32488862  0.79945777  1
  H  H44  1  0.62253574  0.35787054  0.76207853  1
  H  H45  1  0.76928408  0.97689069  0.59982399  1
  H  H46  1  0.72353416  0.89726085  0.71075618  1
  H  H47  1  0.85960376  0.90135678  0.67570016  1
  H  H48  1  0.74736082  0.91121279  0.42313167  1
  H  H49  1  0.64891284  0.79168419  0.24927538  1
  H  H50  1  0.78364977  0.82537385  0.23181265  1
  H  H51  1  0.69850997  0.60380679  0.24020997  1
  H  H52  1  0.82241971  0.63971770  0.20628757  1
  H  H53  1  0.72423113  0.67478970  0.12529125  1
  H  H54  1  0.76957953  0.54065784  0.54888002  1
  H  H55  1  0.82451891  0.59179281  0.72196640  1
  H  H56  1  0.85810119  0.72438803  0.75034812  1
  H  H57  1  0.72065165  0.65192601  0.86762155  1
  H  H58  1  0.67482704  0.75599900  0.79897620  1
  H  H59  1  0.63992215  0.63267405  0.76492616  1
  Pb  Pb60  1  0.98978944  -0.00011657  0.00587891  1
  Pb  Pb61  1  0.99658076  0.50226161  0.99313713  1
  Pb  Pb62  1  0.49860598  0.00469335  0.98754161  1
  Pb  Pb63  1  0.49036320  0.50252691  0.01005573  1
  C  C64  1  0.27548348  0.10287928  0.35572120  1
  C  C65  1  0.26236350  0.19193042  0.43313016  1
  C  C66  1  0.24602994  0.17183251  0.54426187  1
  C  C67  1  0.23949749  0.25665026  0.61521228  1
  C  C68  1  0.22117944  0.23662588  0.73517208  1
  C  C69  1  0.26211558  0.37823697  0.47592229  1
  C  C70  1  0.26990118  0.29927101  0.39827783  1
  C  C71  1  0.29067134  0.33059743  0.28164951  1
  C  C72  1  0.10741876  0.72933778  0.35596841  1
  C  C73  1  0.19435295  0.73860499  0.43499864  1
  C  C74  1  0.17316902  0.75434999  0.54518966  1
  C  C75  1  0.25593321  0.75752068  0.61765847  1
  C  C76  1  0.23342209  0.77356106  0.73657579  1
  C  C77  1  0.37801594  0.73350313  0.48125539  1
  C  C78  1  0.30093124  0.72753820  0.40269490  1
  C  C79  1  0.33278288  0.70445510  0.28795944  1
  C  C80  1  0.89221409  0.22210935  0.64279403  1
  C  C81  1  0.80487328  0.23609381  0.56484898  1
  C  C82  1  0.82567757  0.25121645  0.45364696  1
  C  C83  1  0.74226250  0.25778229  0.38225745  1
  C  C84  1  0.76329445  0.27189272  0.26190931  1
  C  C85  1  0.62055119  0.23825329  0.52122853  1
  C  C86  1  0.69818420  0.22889130  0.59901669  1
  C  C87  1  0.66593732  0.20243364  0.71403930  1
  C  C88  1  0.78017740  0.90049740  0.64177696  1
  C  C89  1  0.76692373  0.81083601  0.56559198  1
  C  C90  1  0.75153955  0.83010215  0.45504081  1
  C  C91  1  0.74388252  0.74485191  0.38502806  1
  C  C92  1  0.72898696  0.76433074  0.26531334  1
  C  C93  1  0.76368353  0.62415615  0.52401788  1
  C  C94  1  0.77395965  0.70377463  0.60051748  1
  C  C95  1  0.79719538  0.67376136  0.71571562  1
  I  I96  1  0.25084705  0.95259705  0.00573000  1
  I  I97  1  0.24867072  0.55532851  0.02323531  1
  I  I98  1  0.74661707  0.05631119  0.96857456  1
  I  I99  1  0.74581107  0.46218241  0.98883136  1
  I  I100  1  0.04707318  0.25185842  0.99367984  1
  I  I101  1  0.94240993  0.74665980  0.00751584  1
  I  I102  1  0.44639238  0.25385929  0.99205917  1
  I  I103  1  0.54467052  0.75093337  0.01225866  1
  I  I104  1  0.04188144  0.99082241  0.75081770  1
  I  I105  1  0.98553413  0.02100056  0.26272718  1
  I  I106  1  0.02518347  0.50346161  0.73585834  1
  I  I107  1  0.97661982  0.48096380  0.25841165  1
  I  I108  1  0.48838865  0.97543463  0.73211214  1
  I  I109  1  0.53641858  0.99530835  0.25128568  1
  I  I110  1  0.48835020  0.50509987  0.73844008  1
  I  I111  1  0.53273153  0.49003294  0.26324079  1
  N  N112  1  0.23219589  0.33711171  0.79513646  1
  N  N113  1  0.24773091  0.35849722  0.58243075  1
  N  N114  1  0.19485204  0.32198229  0.21319556  1
  N  N115  1  0.33063209  0.76200068  0.79987809  1
  N  N116  1  0.35708670  0.74777415  0.58691677  1
  N  N117  1  0.33481573  0.80126122  0.21481619  1
  N  N118  1  0.66453261  0.25476867  0.20199227  1
  N  N119  1  0.64097773  0.25240344  0.41480973  1
  N  N120  1  0.66957699  0.29534836  0.78858763  1
  N  N121  1  0.74521412  0.66459268  0.20515765  1
  N  N122  1  0.74873080  0.64313922  0.41822572  1
  N  N123  1  0.70235951  0.68010964  0.79080870  1
