# generated using pymatgen
data_H15PbC8I4N3
_symmetry_space_group_name_H-M   'P 1'
_cell_length_a   12.42999820
_cell_length_b   12.41717277
_cell_length_c   12.42494159
_cell_angle_alpha   90.42981400
_cell_angle_beta   91.03579064
_cell_angle_gamma   89.47314064
_symmetry_Int_Tables_number   1
_chemical_formula_structural   H15PbC8I4N3
_chemical_formula_sum   'H60 Pb4 C32 I16 N12'
_cell_volume   1917.28698608
_cell_formula_units_Z   4
loop_
 _symmetry_equiv_pos_site_id
 _symmetry_equiv_pos_as_xyz
  1  'x, y, z'
loop_
 _atom_site_type_symbol
 _atom_site_label
 _atom_site_symmetry_multiplicity
 _atom_site_fract_x
 _atom_site_fract_y
 _atom_site_fract_z
 _atom_site_occupancy
  H  H0  1  0.25531584  0.49688255  0.51222567  1
  H  H1  1  0.18780754  0.47007322  0.38740412  1
  H  H2  1  0.33051388  0.46123510  0.39645433  1
  H  H3  1  0.22298424  0.35874484  0.63836316  1
  H  H4  1  0.19363605  0.06739415  0.72066940  1
  H  H5  1  0.14186032  0.19745601  0.75153700  1
  H  H6  1  0.29231415  0.15989171  0.86538809  1
  H  H7  1  0.37158407  0.12436707  0.76446184  1
  H  H8  1  0.33240488  0.25407577  0.78213342  1
  H  H9  1  0.23326142  0.02584068  0.53454197  1
  H  H10  1  0.35560206  0.30573135  0.26440935  1
  H  H11  1  0.21628068  0.33052157  0.24441709  1
  H  H12  1  0.28732916  0.18873203  0.13069274  1
  H  H13  1  0.19231680  0.13762575  0.21180482  1
  H  H14  1  0.32397461  0.11483958  0.23818994  1
  H  H15  1  0.49882222  0.74975267  0.51620063  1
  H  H16  1  0.46756507  0.81426461  0.39194017  1
  H  H17  1  0.46542769  0.67163443  0.39979637  1
  H  H18  1  0.36092871  0.77447678  0.64338530  1
  H  H19  1  0.06906653  0.79122220  0.72706164  1
  H  H20  1  0.19286064  0.85479127  0.75741905  1
  H  H21  1  0.17867606  0.70708904  0.87021952  1
  H  H22  1  0.14301283  0.62123172  0.77179130  1
  H  H23  1  0.26991986  0.66624920  0.78152931  1
  H  H24  1  0.02789744  0.76182948  0.53791960  1
  H  H25  1  0.30675979  0.64968670  0.26236484  1
  H  H26  1  0.33252465  0.78910373  0.25173748  1
  H  H27  1  0.18937944  0.71919097  0.13277462  1
  H  H28  1  0.14347854  0.82056418  0.21338663  1
  H  H29  1  0.11281203  0.69277747  0.23964589  1
  H  H30  1  0.50390474  0.24729615  0.48375154  1
  H  H31  1  0.53191096  0.31207455  0.60929942  1
  H  H32  1  0.53862680  0.16922859  0.59904291  1
  H  H33  1  0.64227765  0.27884695  0.35915196  1
  H  H34  1  0.93452527  0.31409509  0.28295083  1
  H  H35  1  0.80541099  0.36958458  0.25310327  1
  H  H36  1  0.84992025  0.22733135  0.13214401  1
  H  H37  1  0.86976629  0.13818605  0.23012304  1
  H  H38  1  0.74558419  0.18814403  0.20332180  1
  H  H39  1  0.97467331  0.26722667  0.46737279  1
  H  H40  1  0.69471192  0.14865768  0.73812717  1
  H  H41  1  0.66948224  0.28906141  0.75135338  1
  H  H42  1  0.81138138  0.22599258  0.87054824  1
  H  H43  1  0.86209137  0.31493368  0.78421747  1
  H  H44  1  0.88482067  0.18245072  0.76562267  1
  H  H45  1  0.74019535  0.49979754  0.48946911  1
  H  H46  1  0.67885230  0.53360517  0.61371498  1
  H  H47  1  0.82134480  0.53129629  0.60482007  1
  H  H48  1  0.72080416  0.63698150  0.35966792  1
  H  H49  1  0.70706045  0.92882139  0.27172014  1
  H  H50  1  0.64110003  0.80584097  0.24481385  1
  H  H51  1  0.78033573  0.81530533  0.12722691  1
  H  H52  1  0.87239236  0.85418849  0.22069771  1
  H  H53  1  0.82843481  0.72665271  0.21706099  1
  H  H54  1  0.74361311  0.97053139  0.45856767  1
  H  H55  1  0.84379679  0.69363412  0.74412517  1
  H  H56  1  0.70403784  0.66850474  0.74939969  1
  H  H57  1  0.76696268  0.81373598  0.86834699  1
  H  H58  1  0.67138229  0.85870499  0.78113023  1
  H  H59  1  0.80063070  0.88719868  0.76056105  1
  Pb  Pb60  1  0.00678807  0.99345388  0.98799198  1
  Pb  Pb61  1  0.00739556  0.49420498  0.00568625  1
  Pb  Pb62  1  0.50316395  0.99169479  0.01182000  1
  Pb  Pb63  1  0.51299214  0.49763492  0.00410733  1
  C  C64  1  0.25592690  0.44551901  0.44004838  1
  C  C65  1  0.24855510  0.32905243  0.46991256  1
  C  C66  1  0.23234091  0.29719001  0.57577598  1
  C  C67  1  0.22681062  0.18785730  0.60162150  1
  C  C68  1  0.20955531  0.15379202  0.71533421  1
  C  C69  1  0.23702059  0.11224396  0.51861852  1
  C  C70  1  0.25692227  0.24557574  0.39280544  1
  C  C71  1  0.27502007  0.27152392  0.27606682  1
  C  C72  1  0.44674456  0.74647225  0.44414605  1
  C  C73  1  0.33071068  0.75207937  0.47395157  1
  C  C74  1  0.29911436  0.76532828  0.58033623  1
  C  C75  1  0.18997989  0.76819517  0.60617556  1
  C  C76  1  0.15652618  0.78279169  0.72055162  1
  C  C77  1  0.11419530  0.75942215  0.52227606  1
  C  C78  1  0.24709488  0.74502186  0.39609415  1
  C  C79  1  0.27315132  0.73055004  0.27870636  1
  C  C80  1  0.55533797  0.24446144  0.55629785  1
  C  C81  1  0.67170594  0.25077397  0.52772287  1
  C  C82  1  0.70379913  0.26747914  0.42216918  1
  C  C83  1  0.81307799  0.27442555  0.39787483  1
  C  C84  1  0.84795211  0.29883958  0.28596197  1
  C  C85  1  0.88829642  0.26302651  0.48198357  1
  C  C86  1  0.75475907  0.24325590  0.60620169  1
  C  C87  1  0.72838554  0.22894038  0.72337284  1
  C  C88  1  0.74638344  0.55203611  0.56077250  1
  C  C89  1  0.74473475  0.66816548  0.52878634  1
  C  C90  1  0.73284263  0.69904297  0.42151236  1
  C  C91  1  0.73275987  0.80800139  0.39358273  1
  C  C92  1  0.71490770  0.84122516  0.27909398  1
  C  C93  1  0.74389336  0.88430501  0.47604821  1
  C  C94  1  0.75327653  0.75228218  0.60516266  1
  C  C95  1  0.76370055  0.72732200  0.72367637  1
  I  I96  1  0.25303710  0.92940714  0.98537001  1
  I  I97  1  0.25706733  0.55036556  0.02851955  1
  I  I98  1  0.75258127  0.04676356  0.99866857  1
  I  I99  1  0.75945493  0.43779182  0.97493525  1
  I  I100  1  0.05853430  0.24282159  0.02109213  1
  I  I101  1  0.95561585  0.74524072  0.97206419  1
  I  I102  1  0.44828154  0.24649305  0.00676722  1
  I  I103  1  0.58220022  0.74785711  0.01740064  1
  I  I104  1  0.96558186  0.00343645  0.73570037  1
  I  I105  1  0.01323701  0.99407852  0.25968507  1
  I  I106  1  0.01921393  0.47177215  0.74500148  1
  I  I107  1  0.96954892  0.55715112  0.25636704  1
  I  I108  1  0.50023905  0.97413571  0.74443745  1
  I  I109  1  0.49745762  0.02700493  0.26666989  1
  I  I110  1  0.45096536  0.50556401  0.74609236  1
  I  I111  1  0.53788972  0.48111665  0.25799575  1
  N  N112  1  0.30679428  0.17528069  0.78529939  1
  N  N113  1  0.25095499  0.14070538  0.41616893  1
  N  N114  1  0.26762101  0.17188189  0.20949039  1
  N  N115  1  0.19010901  0.68940207  0.78976523  1
  N  N116  1  0.14243743  0.74911036  0.41922142  1
  N  N117  1  0.17387004  0.74270302  0.21134190  1
  N  N118  1  0.82587094  0.20756396  0.20883576  1
  N  N119  1  0.85958322  0.24845778  0.58408930  1
  N  N120  1  0.82787217  0.23947884  0.79068054  1
  N  N121  1  0.80450496  0.80650493  0.20685957  1
  N  N122  1  0.75299799  0.85693831  0.57980773  1
  N  N123  1  0.74932019  0.82758833  0.78810808  1
