# generated using pymatgen
data_H15PbC9I4N2F
_symmetry_space_group_name_H-M   'P 1'
_cell_length_a   12.51470338
_cell_length_b   12.48018696
_cell_length_c   12.82636300
_cell_angle_alpha   90.46947961
_cell_angle_beta   91.02373708
_cell_angle_gamma   89.91328040
_symmetry_Int_Tables_number   1
_chemical_formula_structural   H15PbC9I4N2F
_chemical_formula_sum   'H60 Pb4 C36 I16 N8 F4'
_cell_volume   2002.90737259
_cell_formula_units_Z   4
loop_
 _symmetry_equiv_pos_site_id
 _symmetry_equiv_pos_as_xyz
  1  'x, y, z'
loop_
 _atom_site_type_symbol
 _atom_site_label
 _atom_site_symmetry_multiplicity
 _atom_site_fract_x
 _atom_site_fract_y
 _atom_site_fract_z
 _atom_site_occupancy
  H  H0  1  0.30112173  0.44982080  0.36079554  1
  H  H1  1  0.16300993  0.44944822  0.39192512  1
  H  H2  1  0.25995075  0.49189490  0.48635546  1
  H  H3  1  0.29592672  0.37595601  0.61869815  1
  H  H4  1  0.37375355  0.26112090  0.75099719  1
  H  H5  1  0.37107107  0.11901082  0.73682433  1
  H  H6  1  0.25836268  0.17833247  0.87009769  1
  H  H7  1  0.18569217  0.25663678  0.79257630  1
  H  H8  1  0.17926840  0.12402079  0.77428806  1
  H  H9  1  0.29441346  0.03243777  0.57452003  1
  H  H10  1  0.21029620  0.32826965  0.26133395  1
  H  H11  1  0.11816815  0.22249817  0.27738539  1
  H  H12  1  0.22910746  0.19486454  0.13362840  1
  H  H13  1  0.34122090  0.19015519  0.20617321  1
  H  H14  1  0.24559650  0.09696154  0.21972504  1
  H  H15  1  0.45229207  0.69795446  0.36363097  1
  H  H16  1  0.44875119  0.83690477  0.39562655  1
  H  H17  1  0.49173255  0.74228192  0.49030985  1
  H  H18  1  0.37351293  0.70021550  0.61852463  1
  H  H19  1  0.25374430  0.61675364  0.74317537  1
  H  H20  1  0.11269233  0.62848991  0.72774565  1
  H  H21  1  0.17157149  0.73497350  0.86772891  1
  H  H22  1  0.26144873  0.80072235  0.79987364  1
  H  H23  1  0.13194074  0.82144254  0.77391983  1
  H  H24  1  0.03123332  0.71305813  0.56793432  1
  H  H25  1  0.33047652  0.78516878  0.26118198  1
  H  H26  1  0.22900347  0.88249600  0.27917412  1
  H  H27  1  0.18794878  0.77938357  0.13465935  1
  H  H28  1  0.19573248  0.66205385  0.19434721  1
  H  H29  1  0.09820668  0.74896770  0.22462594  1
  H  H30  1  0.55341683  0.19778696  0.63548597  1
  H  H31  1  0.55342432  0.33663003  0.60615285  1
  H  H32  1  0.51164686  0.24184231  0.50988370  1
  H  H33  1  0.62815774  0.20568503  0.37944164  1
  H  H34  1  0.74645814  0.12516024  0.24946061  1
  H  H35  1  0.88796097  0.13420478  0.26464695  1
  H  H36  1  0.82959159  0.25013931  0.13234768  1
  H  H37  1  0.74021037  0.31189134  0.20510015  1
  H  H38  1  0.86986547  0.33069031  0.23120548  1
  H  H39  1  0.97061142  0.20709371  0.42982035  1
  H  H40  1  0.67235123  0.28738674  0.73712366  1
  H  H41  1  0.77239030  0.38500685  0.71924166  1
  H  H42  1  0.80495995  0.28008077  0.86609558  1
  H  H43  1  0.81772513  0.16555119  0.79665174  1
  H  H44  1  0.90445692  0.26781021  0.78173574  1
  H  H45  1  0.79449575  0.55001211  0.63599433  1
  H  H46  1  0.65609837  0.55444721  0.60290673  1
  H  H47  1  0.75015035  0.51129487  0.50871883  1
  H  H48  1  0.79137371  0.63010254  0.38089685  1
  H  H49  1  0.87165651  0.75082911  0.25384117  1
  H  H50  1  0.86407623  0.89205307  0.26984756  1
  H  H51  1  0.74736680  0.83595985  0.13388512  1
  H  H52  1  0.68481715  0.74739755  0.20549243  1
  H  H53  1  0.66898207  0.87841092  0.23059772  1
  H  H54  1  0.78897309  0.97282754  0.43325032  1
  H  H55  1  0.71240232  0.66951509  0.73785569  1
  H  H56  1  0.61132510  0.76657366  0.71658265  1
  H  H57  1  0.71298230  0.80440868  0.86624549  1
  H  H58  1  0.82839219  0.81602333  0.80212176  1
  H  H59  1  0.72738038  0.90281890  0.78039825  1
  Pb  Pb60  1  0.01272675  0.00271641  0.98471109  1
  Pb  Pb61  1  0.98764089  0.50350698  0.00940692  1
  Pb  Pb62  1  0.50592527  0.00210273  0.00051121  1
  Pb  Pb63  1  0.49583835  0.50080489  0.00346727  1
  C  C64  1  0.24396586  0.43409631  0.42324165  1
  C  C65  1  0.25535610  0.32193905  0.46328673  1
  C  C66  1  0.28147359  0.30616718  0.56849769  1
  C  C67  1  0.29409550  0.20411447  0.61069969  1
  C  C68  1  0.32539378  0.19295338  0.72324130  1
  C  C69  1  0.28235747  0.11380272  0.54624901  1
  C  C70  1  0.25652779  0.13051367  0.44234311  1
  C  C71  1  0.24112240  0.23131003  0.39748361  1
  C  C72  1  0.20282713  0.24504951  0.28636230  1
  C  C73  1  0.43449435  0.75611462  0.42614301  1
  C  C74  1  0.32222125  0.74393642  0.46356388  1
  C  C75  1  0.30475377  0.71617481  0.56734226  1
  C  C76  1  0.20214271  0.70471208  0.60691362  1
  C  C77  1  0.18873871  0.67032382  0.71764250  1
  C  C78  1  0.11304661  0.72177616  0.54148753  1
  C  C79  1  0.13155777  0.74974414  0.43915937  1
  C  C80  1  0.23294198  0.76035341  0.39643869  1
  C  C81  1  0.24813637  0.79691907  0.28620647  1
  C  C82  1  0.56920747  0.25630890  0.57375310  1
  C  C83  1  0.68123523  0.24488603  0.53535929  1
  C  C84  1  0.69754032  0.21848660  0.43072118  1
  C  C85  1  0.79973900  0.20561887  0.39046936  1
  C  C86  1  0.81234318  0.17638231  0.27775975  1
  C  C87  1  0.88909785  0.21802650  0.45651629  1
  C  C88  1  0.87200640  0.24481952  0.55993491  1
  C  C89  1  0.77089828  0.25971678  0.60257786  1
  C  C90  1  0.75479909  0.29882099  0.71247382  1
  C  C91  1  0.73668753  0.56820211  0.57269437  1
  C  C92  1  0.75070761  0.68105377  0.53570799  1
  C  C93  1  0.77812952  0.69899832  0.43211185  1
  C  C94  1  0.79135688  0.80215370  0.39309668  1
  C  C95  1  0.82105014  0.81677354  0.28140811  1
  C  C96  1  0.77848552  0.89064987  0.45922912  1
  C  C97  1  0.75163706  0.87193743  0.56181137  1
  C  C98  1  0.73672566  0.76988674  0.60351627  1
  C  C99  1  0.69794473  0.75184828  0.71245315  1
  I  I100  1  0.26157926  0.92928890  0.00321473  1
  I  I101  1  0.23792457  0.55826192  0.00974040  1
  I  I102  1  0.76271195  0.05332151  -0.00352083  1
  I  I103  1  0.74001965  0.42034005  0.99052736  1
  I  I104  1  0.06110782  0.25249962  0.00691102  1
  I  I105  1  0.94293765  0.75537518  0.99485854  1
  I  I106  1  0.42451311  0.24378297  0.99580258  1
  I  I107  1  0.57284629  0.74626505  0.99784540  1
  I  I108  1  0.02306834  0.98899001  0.72861421  1
  I  I109  1  0.04090115  0.99951658  0.22532123  1
  I  I110  1  0.98118898  0.47859586  0.76651750  1
  I  I111  1  0.97473157  0.49814326  0.26284511  1
  I  I112  1  0.50119193  0.96285850  0.75642000  1
  I  I113  1  0.52324299  0.01561104  0.25488780  1
  I  I114  1  0.47198789  0.50647748  0.75294269  1
  I  I115  1  0.52271958  0.49197786  0.24967068  1
  N  N116  1  0.23057609  0.18739461  0.79372620  1
  N  N117  1  0.25972113  0.17741360  0.20745861  1
  N  N118  1  0.18848895  0.76272714  0.79388348  1
  N  N119  1  0.17770055  0.74225278  0.20611313  1
  N  N120  1  0.81289587  0.27271238  0.20811817  1
  N  N121  1  0.82545470  0.24759886  0.79346107  1
  N  N122  1  0.72497759  0.81949495  0.20935581  1
  N  N123  1  0.74652036  0.82372419  0.79463281  1
  F  F124  1  0.24699241  0.04096834  0.37963295  1
  F  F125  1  0.04362758  0.76791913  0.37552926  1
  F  F126  1  0.96101064  0.25625433  0.62325807  1
  F  F127  1  0.73980414  0.96033704  0.62542782  1
