# generated using pymatgen
data_H15PbC9I4N2F
_symmetry_space_group_name_H-M   'P 1'
_cell_length_a   12.63020499
_cell_length_b   12.61283099
_cell_length_c   12.77874717
_cell_angle_alpha   91.57919946
_cell_angle_beta   90.67310403
_cell_angle_gamma   91.42664330
_symmetry_Int_Tables_number   1
_chemical_formula_structural   H15PbC9I4N2F
_chemical_formula_sum   'H60 Pb4 C36 I16 N8 F4'
_cell_volume   2034.12673524
_cell_formula_units_Z   4
loop_
 _symmetry_equiv_pos_site_id
 _symmetry_equiv_pos_as_xyz
  1  'x, y, z'
loop_
 _atom_site_type_symbol
 _atom_site_label
 _atom_site_symmetry_multiplicity
 _atom_site_fract_x
 _atom_site_fract_y
 _atom_site_fract_z
 _atom_site_occupancy
  H  H0  1  0.12608780  0.41063649  0.35671614  1
  H  H1  1  0.25564619  0.40654743  0.30544618  1
  H  H2  1  0.23304440  0.47699426  0.42377980  1
  H  H3  1  0.26833378  0.39531149  0.58271010  1
  H  H4  1  0.39016287  0.22356228  0.72680436  1
  H  H5  1  0.30072136  0.32820423  0.74594262  1
  H  H6  1  0.17044716  0.19102564  0.80259501  1
  H  H7  1  0.26239713  0.09864664  0.78283733  1
  H  H8  1  0.28497436  0.19638352  0.87218404  1
  H  H9  1  0.20806300  0.03541509  0.42399603  1
  H  H10  1  0.12786625  0.25163643  0.25567807  1
  H  H11  1  0.13935629  0.11332356  0.26808169  1
  H  H12  1  0.33318200  0.13821823  0.23059632  1
  H  H13  1  0.31067156  0.26432288  0.20431637  1
  H  H14  1  0.24933003  0.16918483  0.13379627  1
  H  H15  1  0.41826587  0.87236639  0.35699061  1
  H  H16  1  0.40414805  0.74161216  0.30366100  1
  H  H17  1  0.47611730  0.76503417  0.42147390  1
  H  H18  1  0.39307710  0.73445093  0.57975405  1
  H  H19  1  0.22252664  0.61201896  0.72156975  1
  H  H20  1  0.32572399  0.70732330  0.74352979  1
  H  H21  1  0.19178248  0.82885632  0.81113442  1
  H  H22  1  0.09678567  0.73516866  0.78491597  1
  H  H23  1  0.19283596  0.71259879  0.87201119  1
  H  H24  1  0.03679837  0.79489522  0.42947699  1
  H  H25  1  0.25953923  0.87198490  0.25875750  1
  H  H26  1  0.12039495  0.87148966  0.27731458  1
  H  H27  1  0.11668012  0.67849586  0.23225715  1
  H  H28  1  0.24520272  0.68672718  0.20373963  1
  H  H29  1  0.16099657  0.75633605  0.13692194  1
  H  H30  1  0.58614128  0.37770045  0.64558436  1
  H  H31  1  0.59203103  0.24856438  0.69447919  1
  H  H32  1  0.52170220  0.27053411  0.57683830  1
  H  H33  1  0.60363115  0.23933976  0.41578748  1
  H  H34  1  0.77920021  0.11699512  0.26617443  1
  H  H35  1  0.67258841  0.20478572  0.25215906  1
  H  H36  1  0.80366407  0.34003179  0.19756856  1
  H  H37  1  0.90081548  0.25475806  0.21582211  1
  H  H38  1  0.80711379  0.22758450  0.12528864  1
  H  H39  1  0.96272587  0.28925457  0.57476202  1
  H  H40  1  0.74277427  0.37515282  0.74354412  1
  H  H41  1  0.88144271  0.36927067  0.72832645  1
  H  H42  1  0.86777413  0.17872844  0.77128151  1
  H  H43  1  0.73939644  0.19242493  0.79552069  1
  H  H44  1  0.82652941  0.26448241  0.86588406  1
  H  H45  1  0.62689765  0.57935171  0.64366439  1
  H  H46  1  0.75726489  0.59395848  0.69398901  1
  H  H47  1  0.73361177  0.52168398  0.57484536  1
  H  H48  1  0.76284057  0.60561959  0.41706763  1
  H  H49  1  0.88334159  0.78508907  0.27533730  1
  H  H50  1  0.79403194  0.67594255  0.25525516  1
  H  H51  1  0.66373496  0.79931049  0.19041234  1
  H  H52  1  0.74722591  0.90256729  0.22025159  1
  H  H53  1  0.77867637  0.81150735  0.12988914  1
  H  H54  1  0.70263293  0.96140197  0.57752126  1
  H  H55  1  0.62271140  0.73683141  0.74215677  1
  H  H56  1  0.62585120  0.87623458  0.72760558  1
  H  H57  1  0.81618171  0.87719179  0.77401865  1
  H  H58  1  0.80728153  0.74799931  0.79766043  1
  H  H59  1  0.73477932  0.83042838  0.86751204  1
  Pb  Pb60  1  0.99189870  0.99907580  0.98626586  1
  Pb  Pb61  1  0.00820090  0.49991776  0.99872879  1
  Pb  Pb62  1  0.49731510  0.00656836  0.00109883  1
  Pb  Pb63  1  0.50660044  0.49944144  0.01147108  1
  C  C64  1  0.21028030  0.40480160  0.37840379  1
  C  C65  1  0.22798732  0.30743871  0.44035796  1
  C  C66  1  0.25516322  0.31653080  0.54664304  1
  C  C67  1  0.26699119  0.22819162  0.60950144  1
  C  C68  1  0.30649299  0.24494531  0.72003234  1
  C  C69  1  0.24877584  0.12853573  0.56146747  1
  C  C70  1  0.22205215  0.11546083  0.45642109  1
  C  C71  1  0.21248062  0.20496485  0.39504109  1
  C  C72  1  0.18081975  0.18985621  0.28195154  1
  C  C73  1  0.40598569  0.78879729  0.37743308  1
  C  C74  1  0.30751224  0.77476963  0.44055797  1
  C  C75  1  0.31504191  0.74782195  0.54569194  1
  C  C76  1  0.22647803  0.73615329  0.60968642  1
  C  C77  1  0.24282646  0.69720653  0.71834892  1
  C  C78  1  0.12774300  0.75318398  0.56380196  1
  C  C79  1  0.11602958  0.78136400  0.46036791  1
  C  C80  1  0.20600694  0.79211573  0.39807076  1
  C  C81  1  0.19194444  0.82480909  0.28677155  1
  C  C82  1  0.59334892  0.29363496  0.62197045  1
  C  C83  1  0.69080620  0.27574906  0.55868161  1
  C  C84  1  0.68211031  0.24983352  0.45178298  1
  C  C85  1  0.77079872  0.23628862  0.38860669  1
  C  C86  1  0.75569316  0.19986556  0.27664025  1
  C  C87  1  0.86997675  0.25005832  0.43686801  1
  C  C88  1  0.88306105  0.27687673  0.54207274  1
  C  C89  1  0.79286230  0.28941763  0.60367753  1
  C  C90  1  0.80657655  0.32432843  0.71625577  1
  C  C91  1  0.71010621  0.59162725  0.62090270  1
  C  C92  1  0.72372003  0.69046099  0.55929626  1
  C  C93  1  0.75029343  0.68351739  0.45345545  1
  C  C94  1  0.76192195  0.77304437  0.39169524  1
  C  C95  1  0.79987475  0.75935317  0.28136578  1
  C  C96  1  0.74497605  0.87129833  0.44061556  1
  C  C97  1  0.71684749  0.88238658  0.54466807  1
  C  C98  1  0.70623553  0.79159638  0.60474154  1
  C  C99  1  0.67172314  0.80406527  0.71633818  1
  I  I100  1  0.23872551  0.95140380  0.00486895  1
  I  I101  1  0.25142537  0.57525631  0.00797666  1
  I  I102  1  0.74427258  0.06598696  0.99470428  1
  I  I103  1  0.75387189  0.43745422  0.98760507  1
  I  I104  1  0.05307126  0.24910631  0.00418009  1
  I  I105  1  0.93713301  0.74941342  0.99441844  1
  I  I106  1  0.42892234  0.25667541  0.99824976  1
  I  I107  1  0.56227629  0.76275576  -0.00054783  1
  I  I108  1  0.97412328  0.01206771  0.73018280  1
  I  I109  1  0.96387707  0.99816685  0.22780522  1
  I  I110  1  0.02989509  0.50636890  0.75447091  1
  I  I111  1  0.97526851  0.52895731  0.25036137  1
  I  I112  1  0.48884186  0.02315271  0.75662780  1
  I  I113  1  0.49746825  0.04248753  0.25374908  1
  I  I114  1  0.45916885  0.51657176  0.76637654  1
  I  I115  1  0.50036358  0.49791126  0.25729629  1
  N  N116  1  0.25056863  0.17812229  0.79859125  1
  N  N117  1  0.27353667  0.19095595  0.20909440  1
  N  N118  1  0.17636561  0.74854472  0.80092869  1
  N  N119  1  0.17815562  0.73130432  0.21154447  1
  N  N120  1  0.82106793  0.26049141  0.19988567  1
  N  N121  1  0.81027430  0.23411167  0.79093568  1
  N  N122  1  0.74233240  0.82241039  0.20182910  1
  N  N123  1  0.76352015  0.81553840  0.79287212  1
  F  F124  1  0.25627376  0.03909334  0.61983338  1
  F  F125  1  0.03795648  0.74305361  0.62273425  1
  F  F126  1  0.95913834  0.23792719  0.37702571  1
  F  F127  1  0.75497158  0.96168122  0.38345381  1
