# generated using pymatgen
data_H16PbC9(I2N)2
_symmetry_space_group_name_H-M   'P 1'
_cell_length_a   13.07475975
_cell_length_b   13.01403303
_cell_length_c   12.57630623
_cell_angle_alpha   89.79874621
_cell_angle_beta   89.92830105
_cell_angle_gamma   89.33892469
_symmetry_Int_Tables_number   1
_chemical_formula_structural   H16PbC9(I2N)2
_chemical_formula_sum   'H64 Pb4 C36 I16 N8'
_cell_volume   2139.76864917
_cell_formula_units_Z   4
loop_
 _symmetry_equiv_pos_site_id
 _symmetry_equiv_pos_as_xyz
  1  'x, y, z'
loop_
 _atom_site_type_symbol
 _atom_site_label
 _atom_site_symmetry_multiplicity
 _atom_site_fract_x
 _atom_site_fract_y
 _atom_site_fract_z
 _atom_site_occupancy
  H  H0  1  0.23490205  0.00401584  0.42080729  1
  H  H1  1  0.19052222  0.00644105  0.55511456  1
  H  H2  1  0.32407536  0.00493423  0.52725910  1
  H  H3  1  0.20399004  0.16337380  0.66310988  1
  H  H4  1  0.18899284  0.45355897  0.67288287  1
  H  H5  1  0.12094071  0.34526685  0.71725636  1
  H  H6  1  0.27148580  0.28586130  0.81145338  1
  H  H7  1  0.23853270  0.40443699  0.84640211  1
  H  H8  1  0.33897679  0.38610375  0.76508248  1
  H  H9  1  0.24911763  0.45054662  0.49810688  1
  H  H10  1  0.30511618  0.45240137  0.32210960  1
  H  H11  1  0.36942711  0.34333936  0.27072225  1
  H  H12  1  0.14857448  0.39513845  0.24252014  1
  H  H13  1  0.20478759  0.28866385  0.19320191  1
  H  H14  1  0.24299863  0.40282156  0.15214933  1
  H  H15  1  0.29195028  0.16247756  0.33414980  1
  H  H16  1  0.00383521  0.76565965  0.42009268  1
  H  H17  1  0.00558340  0.80943608  0.55451681  1
  H  H18  1  0.00708795  0.67545968  0.52634718  1
  H  H19  1  0.16216896  0.79650205  0.66217392  1
  H  H20  1  0.45101724  0.81043878  0.67154610  1
  H  H21  1  0.34282529  0.88090753  0.71526036  1
  H  H22  1  0.28589073  0.73299743  0.81278229  1
  H  H23  1  0.40565589  0.76085379  0.84441432  1
  H  H24  1  0.38332344  0.66095713  0.76422038  1
  H  H25  1  0.44887852  0.75213740  0.49763495  1
  H  H26  1  0.45200992  0.69335580  0.32342473  1
  H  H27  1  0.34417705  0.63159818  0.27043574  1
  H  H28  1  0.39657097  0.85239812  0.24229100  1
  H  H29  1  0.29096287  0.79829345  0.19175130  1
  H  H30  1  0.40504724  0.75728680  0.15248585  1
  H  H31  1  0.16309230  0.70884633  0.33332028  1
  H  H32  1  0.99519000  0.24756786  0.58006364  1
  H  H33  1  0.99595171  0.30977045  0.45269543  1
  H  H34  1  0.99122005  0.17391049  0.46142030  1
  H  H35  1  0.83742005  0.29419703  0.33497580  1
  H  H36  1  0.54884727  0.30944947  0.32353501  1
  H  H37  1  0.65738455  0.37078942  0.27062001  1
  H  H38  1  0.71090358  0.20262464  0.19530169  1
  H  H39  1  0.59807023  0.24456177  0.15348221  1
  H  H40  1  0.60430236  0.15019471  0.24465658  1
  H  H41  1  0.55082874  0.24877793  0.49806396  1
  H  H42  1  0.54743955  0.18969209  0.67174921  1
  H  H43  1  0.65443338  0.11759686  0.71545357  1
  H  H44  1  0.61226213  0.33654893  0.76637170  1
  H  H45  1  0.71341857  0.26841514  0.81081205  1
  H  H46  1  0.59660094  0.23426265  0.84661060  1
  H  H47  1  0.83681530  0.20379621  0.66367583  1
  H  H48  1  0.75155840  0.99603119  0.57766493  1
  H  H49  1  0.68963709  0.99829765  0.45061610  1
  H  H50  1  0.82501121  0.99048471  0.45879676  1
  H  H51  1  0.70455929  0.83820052  0.33344563  1
  H  H52  1  0.68967684  0.54831341  0.32420882  1
  H  H53  1  0.62799197  0.65820848  0.27100787  1
  H  H54  1  0.79418851  0.70846015  0.19318906  1
  H  H55  1  0.75392676  0.59513123  0.15298482  1
  H  H56  1  0.84810258  0.60127715  0.24362545  1
  H  H57  1  0.75091699  0.54986974  0.49797899  1
  H  H58  1  0.81133554  0.54612165  0.67090115  1
  H  H59  1  0.88232699  0.65281709  0.71369561  1
  H  H60  1  0.66426343  0.61563895  0.76531898  1
  H  H61  1  0.73357167  0.71399479  0.81082775  1
  H  H62  1  0.76547042  0.59463499  0.84489671  1
  H  H63  1  0.79601565  0.83671617  0.66132847  1
  Pb  Pb64  1  0.03619010  0.01640600  0.00913858  1
  Pb  Pb65  1  0.01546517  0.52305960  0.02948213  1
  Pb  Pb66  1  0.49658825  0.02098718  0.02803395  1
  Pb  Pb67  1  0.51059724  0.50329443  0.96413996  1
  C  C68  1  0.24934316  0.03487470  0.50034430  1
  C  C69  1  0.24998427  0.14996901  0.49925482  1
  C  C70  1  0.22724354  0.20546008  0.59172323  1
  C  C71  1  0.22889770  0.31289676  0.59235079  1
  C  C72  1  0.19578847  0.37097541  0.68899678  1
  C  C73  1  0.25050402  0.36656643  0.49868681  1
  C  C74  1  0.27149820  0.31246238  0.40522665  1
  C  C75  1  0.29724045  0.37023692  0.30582704  1
  C  C76  1  0.27276020  0.20501477  0.40640858  1
  C  C77  1  0.03511595  0.75071432  0.49957708  1
  C  C78  1  0.14974132  0.75038746  0.49841182  1
  C  C79  1  0.20449604  0.77328617  0.59086523  1
  C  C80  1  0.31142754  0.77205407  0.59152478  1
  C  C81  1  0.36892143  0.80513614  0.68783821  1
  C  C82  1  0.36530737  0.75067775  0.49802261  1
  C  C83  1  0.31196825  0.72969115  0.40454443  1
  C  C84  1  0.37046261  0.70338753  0.30582394  1
  C  C85  1  0.20500773  0.72797315  0.40561165  1
  C  C86  1  0.96454120  0.24570106  0.49904046  1
  C  C87  1  0.85002093  0.25002336  0.49981981  1
  C  C88  1  0.79517907  0.27390098  0.40700767  1
  C  C89  1  0.68830297  0.27233494  0.40565576  1
  C  C90  1  0.63053269  0.29923221  0.30664924  1
  C  C91  1  0.63439789  0.25001701  0.49877536  1
  C  C92  1  0.68774972  0.22776635  0.59233197  1
  C  C93  1  0.62949105  0.19399560  0.68830442  1
  C  C94  1  0.79475599  0.22673142  0.59208130  1
  C  C95  1  0.75346963  0.96532777  0.49665787  1
  C  C96  1  0.74929987  0.85041744  0.49777033  1
  C  C97  1  0.72518854  0.79553418  0.40547669  1
  C  C98  1  0.72680702  0.68809278  0.40476492  1
  C  C99  1  0.69955346  0.63007551  0.30645359  1
  C  C100  1  0.74962781  0.63384917  0.49804690  1
  C  C101  1  0.77231650  0.68734636  0.59097976  1
  C  C102  1  0.80652495  0.62866211  0.68704547  1
  C  C103  1  0.77304551  0.79477959  0.59011876  1
  I  I104  1  0.25324487  0.90597106  0.00074835  1
  I  I105  1  0.25312954  0.56348634  0.99342879  1
  I  I106  1  0.72612195  0.07172546  0.01392217  1
  I  I107  1  0.73677787  0.43052525  0.98805134  1
  I  I108  1  0.08871171  0.25271469  0.00862716  1
  I  I109  1  0.91230997  0.73479308  0.00457076  1
  I  I110  1  0.43013137  0.25607441  0.99999010  1
  I  I111  1  0.56184241  0.73900393  0.98373418  1
  I  I112  1  0.00023942  0.99690460  0.75539249  1
  I  I113  1  0.00367760  0.99721144  0.25601850  1
  I  I114  1  0.98813709  0.48223617  0.79860472  1
  I  I115  1  0.00051368  0.50330793  0.30190142  1
  I  I116  1  0.49457816  0.00164363  0.79221072  1
  I  I117  1  0.49644557  0.00246562  0.30159309  1
  I  I118  1  0.49993699  0.49834813  0.69067666  1
  I  I119  1  0.49801513  0.50081176  0.19699213  1
  N  N120  1  0.26607535  0.36022296  0.78340914  1
  N  N121  1  0.21897106  0.36260725  0.21894044  1
  N  N122  1  0.35919921  0.73510279  0.78273530  1
  N  N123  1  0.36428701  0.78238060  0.21853660  1
  N  N124  1  0.63747413  0.21978097  0.22059704  1
  N  N125  1  0.63941244  0.26291570  0.78359000  1
  N  N126  1  0.77823143  0.63500909  0.21942147  1
  N  N127  1  0.73773696  0.63988072  0.78249327  1
