# generated using pymatgen
data_H18PbC10(I2N)2
_symmetry_space_group_name_H-M   'P 1'
_cell_length_a   13.01400748
_cell_length_b   12.84524372
_cell_length_c   13.13921848
_cell_angle_alpha   92.83662245
_cell_angle_beta   90.72468573
_cell_angle_gamma   90.09368825
_symmetry_Int_Tables_number   1
_chemical_formula_structural   H18PbC10(I2N)2
_chemical_formula_sum   'H72 Pb4 C40 I16 N8'
_cell_volume   2193.58576529
_cell_formula_units_Z   4
loop_
 _symmetry_equiv_pos_site_id
 _symmetry_equiv_pos_as_xyz
  1  'x, y, z'
loop_
 _atom_site_type_symbol
 _atom_site_label
 _atom_site_symmetry_multiplicity
 _atom_site_fract_x
 _atom_site_fract_y
 _atom_site_fract_z
 _atom_site_occupancy
  H  H0  1  0.40834112  0.43148739  0.37866890  1
  H  H1  1  0.28571488  0.41566543  0.32176195  1
  H  H2  1  0.29864387  0.48196649  0.44316359  1
  H  H3  1  0.26477906  0.39450343  0.58777975  1
  H  H4  1  0.22001704  0.32090303  0.73252318  1
  H  H5  1  0.08532865  0.18700061  0.68404706  1
  H  H6  1  0.12155315  0.18651588  0.81454891  1
  H  H7  1  0.16662137  0.08736133  0.72763654  1
  H  H8  1  0.30577138  0.21083461  0.85788384  1
  H  H9  1  0.38177007  0.27818395  0.78206549  1
  H  H10  1  0.36635197  0.14638367  0.76420876  1
  H  H11  1  0.28571695  0.06010539  0.59408362  1
  H  H12  1  0.34399302  0.05247315  0.41593990  1
  H  H13  1  0.43771411  0.14953554  0.28554899  1
  H  H14  1  0.42119618  0.28646377  0.27637397  1
  H  H15  1  0.28140305  0.11307668  0.21208551  1
  H  H16  1  0.33589089  0.20243404  0.14114026  1
  H  H17  1  0.23930893  0.23812411  0.21940181  1
  H  H18  1  0.44703289  0.60308579  0.37233582  1
  H  H19  1  0.42989627  0.72921892  0.32835945  1
  H  H20  1  0.49263400  0.71182753  0.44752721  1
  H  H21  1  0.39949868  0.73603711  0.59561324  1
  H  H22  1  0.31834752  0.79011015  0.73978678  1
  H  H23  1  0.17395634  0.91002333  0.69331963  1
  H  H24  1  0.17448618  0.88143708  0.82408483  1
  H  H25  1  0.08413615  0.82033873  0.73830253  1
  H  H26  1  0.21813803  0.69503959  0.86378077  1
  H  H27  1  0.28565822  0.61826133  0.78313811  1
  H  H28  1  0.15828176  0.62693415  0.76925446  1
  H  H29  1  0.06917465  0.71274494  0.59699941  1
  H  H30  1  0.06959558  0.66175120  0.41392451  1
  H  H31  1  0.17562886  0.57021047  0.27683602  1
  H  H32  1  0.30796448  0.60071859  0.26569316  1
  H  H33  1  0.12913045  0.73384121  0.22332584  1
  H  H34  1  0.21215083  0.67786795  0.14200962  1
  H  H35  1  0.25272746  0.77900908  0.22142267  1
  H  H36  1  0.55302565  0.10790252  0.61016674  1
  H  H37  1  0.56266350  0.23463847  0.66860051  1
  H  H38  1  0.50478121  0.21635216  0.54627616  1
  H  H39  1  0.60329360  0.24046792  0.40138047  1
  H  H40  1  0.68937147  0.28943131  0.26125462  1
  H  H41  1  0.81657949  0.42622145  0.32429525  1
  H  H42  1  0.82604791  0.39175621  0.19312446  1
  H  H43  1  0.91864966  0.34478382  0.28045222  1
  H  H44  1  0.83204129  0.20866622  0.14651823  1
  H  H45  1  0.74224151  0.13001318  0.18983380  1
  H  H46  1  0.85927974  0.13479329  0.24408336  1
  H  H47  1  0.93422013  0.22939666  0.41133658  1
  H  H48  1  0.92829322  0.18222052  0.59047587  1
  H  H49  1  0.81443600  0.08842266  0.71459899  1
  H  H50  1  0.68551333  0.12786861  0.73138722  1
  H  H51  1  0.86368399  0.27396162  0.76156687  1
  H  H52  1  0.82260179  0.19947422  0.85152391  1
  H  H53  1  0.74598805  0.29207205  0.80489748  1
  H  H54  1  0.89676415  0.55711654  0.60517437  1
  H  H55  1  0.77639772  0.56739873  0.66400979  1
  H  H56  1  0.78557990  0.50879870  0.53926727  1
  H  H57  1  0.75264127  0.60849962  0.39802063  1
  H  H58  1  0.70304107  0.69333406  0.25988762  1
  H  H59  1  0.57076716  0.82630786  0.32041293  1
  H  H60  1  0.60063681  0.83146108  0.18970922  1
  H  H61  1  0.65116218  0.92717141  0.27972777  1
  H  H62  1  0.78227531  0.82266698  0.14494041  1
  H  H63  1  0.86238277  0.74149650  0.20750348  1
  H  H64  1  0.85172687  0.86823363  0.24498353  1
  H  H65  1  0.77466963  0.94379975  0.41608319  1
  H  H66  1  0.83238941  0.93825114  0.59483001  1
  H  H67  1  0.91876355  0.83463122  0.72067805  1
  H  H68  1  0.90454702  0.69658704  0.72235257  1
  H  H69  1  0.74349597  0.85130843  0.78337055  1
  H  H70  1  0.82706054  0.79413266  0.85994482  1
  H  H71  1  0.73871468  0.72154522  0.79610609  1
  Pb  Pb72  1  0.00943761  0.99859365  0.03942969  1
  Pb  Pb73  1  0.00093954  0.50124400  0.99253890  1
  Pb  Pb74  1  0.47755668  0.97357071  0.00153231  1
  Pb  Pb75  1  0.52826944  0.49025492  0.98644752  1
  C  C76  1  0.32710874  0.41627850  0.39535668  1
  C  C77  1  0.31449409  0.31637535  0.44835104  1
  C  C78  1  0.28164405  0.31935612  0.54937393  1
  C  C79  1  0.27242395  0.22901823  0.60352000  1
  C  C80  1  0.23933986  0.23904676  0.71338020  1
  C  C81  1  0.14864773  0.17064017  0.73662951  1
  C  C82  1  0.29312831  0.13227639  0.55424552  1
  C  C83  1  0.32622826  0.12775303  0.45369747  1
  C  C84  1  0.33867354  0.21901083  0.40057342  1
  C  C85  1  0.38276246  0.21386404  0.29502953  1
  C  C86  1  0.42949032  0.68402487  0.39720948  1
  C  C87  1  0.32874361  0.69269782  0.45078584  1
  C  C88  1  0.32702226  0.71957522  0.55518074  1
  C  C89  1  0.23558331  0.72654601  0.60933187  1
  C  C90  1  0.24032443  0.76189391  0.72068932  1
  C  C91  1  0.16367064  0.84767991  0.74643702  1
  C  C92  1  0.14226749  0.70666417  0.55745797  1
  C  C93  1  0.14232721  0.67887656  0.45370714  1
  C  C94  1  0.23455388  0.67133591  0.39963431  1
  C  C95  1  0.23341432  0.63190426  0.28975778  1
  C  C96  1  0.56735438  0.19020735  0.59510510  1
  C  C97  1  0.66948375  0.20305034  0.54581015  1
  C  C98  1  0.67466419  0.22732262  0.44336236  1
  C  C99  1  0.76812455  0.23742453  0.39384170  1
  C  C100  1  0.76801773  0.26969651  0.28492522  1
  C  C101  1  0.83693182  0.36281452  0.26958280  1
  C  C102  1  0.86002870  0.22239703  0.44807431  1
  C  C103  1  0.85647426  0.19690845  0.54962740  1
  C  C104  1  0.76218370  0.18795077  0.59934659  1
  C  C105  1  0.76102437  0.15372452  0.70671067  1
  C  C106  1  0.81481631  0.57245001  0.59029777  1
  C  C107  1  0.80029705  0.67613985  0.54424986  1
  C  C108  1  0.76917837  0.68089475  0.44224196  1
  C  C109  1  0.75936212  0.77540903  0.39477166  1
  C  C110  1  0.72322110  0.77398745  0.28471236  1
  C  C111  1  0.63163398  0.84422728  0.26738423  1
  C  C112  1  0.78074668  0.86866006  0.45100030  1
  C  C113  1  0.81241873  0.86557808  0.55249219  1
  C  C114  1  0.82211915  0.77038325  0.59999591  1
  C  C115  1  0.86500248  0.76947800  0.70661009  1
  I  I116  1  0.23206980  0.04469787  0.98119421  1
  I  I117  1  0.23713692  0.50274131  0.02779802  1
  I  I118  1  0.72588670  0.98027550  0.02492838  1
  I  I119  1  0.74868331  0.51150841  0.89506993  1
  I  I120  1  0.97043167  0.25438435  0.02453071  1
  I  I121  1  1.00344513  0.75365920  0.97019544  1
  I  I122  1  0.49280608  0.22967705  0.01857252  1
  I  I123  1  0.47286517  0.72725830  0.97353436  1
  I  I124  1  0.95504827  0.01399883  0.81348314  1
  I  I125  1  0.99863260  0.00279466  0.28952837  1
  I  I126  1  0.03731782  0.46308623  0.75237459  1
  I  I127  1  0.96322678  0.58917016  0.22540620  1
  I  I128  1  0.47781110  0.97018416  0.76255487  1
  I  I129  1  0.36935690  0.92983698  0.22872366  1
  I  I130  1  0.44013096  0.46460147  0.75293402  1
  I  I131  1  0.57787614  0.48974671  0.22115253  1
  N  N132  1  0.32917825  0.21637805  0.78345018  1
  N  N133  1  0.30304882  0.19150172  0.21210546  1
  N  N134  1  0.22442434  0.67034978  0.78819667  1
  N  N135  1  0.20531001  0.71266916  0.21501846  1
  N  N136  1  0.80105031  0.18024526  0.21285381  1
  N  N137  1  0.79942276  0.23514444  0.78567977  1
  N  N138  1  0.80999020  0.80370639  0.21599676  1
  N  N139  1  0.78691036  0.78506203  0.79092700  1
