# generated using pymatgen
data_H18PbC10(I2N)2
_symmetry_space_group_name_H-M   'P 1'
_cell_length_a   12.70668058
_cell_length_b   12.49445787
_cell_length_c   12.82371351
_cell_angle_alpha   90.00036308
_cell_angle_beta   90.00647267
_cell_angle_gamma   90.02230356
_symmetry_Int_Tables_number   1
_chemical_formula_structural   H18PbC10(I2N)2
_chemical_formula_sum   'H72 Pb4 C40 I16 N8'
_cell_volume   2035.93215332
_cell_formula_units_Z   4
loop_
 _symmetry_equiv_pos_site_id
 _symmetry_equiv_pos_as_xyz
  1  'x, y, z'
loop_
 _atom_site_type_symbol
 _atom_site_label
 _atom_site_symmetry_multiplicity
 _atom_site_fract_x
 _atom_site_fract_y
 _atom_site_fract_z
 _atom_site_occupancy
  H  H0  1  0.24292457  0.03563894  0.32386740  1
  H  H1  1  0.36724899  0.02701637  0.38613551  1
  H  H2  1  0.25290998  0.97484325  0.44804873  1
  H  H3  1  0.21480059  0.07176360  0.59638399  1
  H  H4  1  0.12458660  0.31564661  0.73328697  1
  H  H5  1  0.12893322  0.17269262  0.73832177  1
  H  H6  1  0.30962089  0.18671733  0.79879798  1
  H  H7  1  0.22630986  0.25542726  0.87338998  1
  H  H8  1  0.30702268  0.31919792  0.79039356  1
  H  H9  1  0.21804611  0.41593257  0.59919200  1
  H  H10  1  0.36998496  0.46392187  0.39435774  1
  H  H11  1  0.25351957  0.51344572  0.45388500  1
  H  H12  1  0.24857947  0.45531227  0.32782207  1
  H  H13  1  0.37122913  0.17615221  0.27327411  1
  H  H14  1  0.37117311  0.31740383  0.27514167  1
  H  H15  1  0.18542059  0.31406330  0.21779195  1
  H  H16  1  0.18885868  0.18106968  0.21321928  1
  H  H17  1  0.26987948  0.25144681  0.13595472  1
  H  H18  1  0.03893628  0.76015911  0.32601584  1
  H  H19  1  0.03371991  0.63441797  0.38965461  1
  H  H20  1  0.98102346  0.75025188  0.45086247  1
  H  H21  1  0.07899996  0.78927109  0.59941801  1
  H  H22  1  0.32174355  0.87352354  0.73902048  1
  H  H23  1  0.18119423  0.87262967  0.74311864  1
  H  H24  1  0.18923044  0.68168058  0.78851419  1
  H  H25  1  0.25285002  0.76144339  0.87385976  1
  H  H26  1  0.32066289  0.68646130  0.78916134  1
  H  H27  1  0.41735012  0.78867742  0.59697684  1
  H  H28  1  0.46231038  0.63805048  0.38930452  1
  H  H29  1  0.51118980  0.75631420  0.44811983  1
  H  H30  1  0.45225446  0.76106012  0.32286221  1
  H  H31  1  0.17792244  0.62924693  0.27693718  1
  H  H32  1  0.31699535  0.63031640  0.27712136  1
  H  H33  1  0.31409977  0.81039129  0.20835164  1
  H  H34  1  0.18393181  0.81487699  0.21191689  1
  H  H35  1  0.24560923  0.72499494  0.13541325  1
  H  H36  1  0.95224976  0.26104131  0.67713236  1
  H  H37  1  0.96228608  0.13802124  0.61070775  1
  H  H38  1  0.01115939  0.25627365  0.55187689  1
  H  H39  1  0.91728287  0.28865242  0.40302162  1
  H  H40  1  0.68108191  0.37259665  0.25688548  1
  H  H41  1  0.82163364  0.37353300  0.26099411  1
  H  H42  1  0.82060835  0.18649633  0.21081013  1
  H  H43  1  0.75272635  0.26143526  0.12613077  1
  H  H44  1  0.68917773  0.18164318  0.21148525  1
  H  H45  1  0.57893286  0.28925899  0.40058326  1
  H  H46  1  0.53368045  0.13441052  0.61032047  1
  H  H47  1  0.48099368  0.25026838  0.54913840  1
  H  H48  1  0.53893575  0.26013382  0.67398896  1
  H  H49  1  0.81700934  0.13025129  0.72283851  1
  H  H50  1  0.67793536  0.12919645  0.72304489  1
  H  H51  1  0.68398448  0.31478613  0.78813715  1
  H  H52  1  0.81415475  0.31031933  0.79164348  1
  H  H53  1  0.74571886  0.22489498  0.86458359  1
  H  H54  1  0.74856271  0.95529341  0.67217438  1
  H  H55  1  0.86998061  0.96389341  0.60569447  1
  H  H56  1  0.75353397  0.01343402  0.54611856  1
  H  H57  1  0.71806842  0.91591510  0.40079406  1
  H  H58  1  0.62895548  0.67263707  0.26165581  1
  H  H59  1  0.62454957  0.81558783  0.26668451  1
  H  H60  1  0.80698766  0.81921005  0.20962567  1
  H  H61  1  0.72628442  0.75543022  0.12660606  1
  H  H62  1  0.80962883  0.68673641  0.20119914  1
  H  H63  1  0.71476822  0.57174884  0.40361613  1
  H  H64  1  0.86717049  0.52698327  0.61392628  1
  H  H65  1  0.75283494  0.47483412  0.55195868  1
  H  H66  1  0.74283473  0.53563007  0.67614079  1
  H  H67  1  0.87111510  0.81740627  0.72490861  1
  H  H68  1  0.87119836  0.67615588  0.72677364  1
  H  H69  1  0.68881038  0.68104551  0.78675645  1
  H  H70  1  0.68536744  0.81404058  0.78220882  1
  H  H71  1  0.76981115  0.75140624  0.86406017  1
  Pb  Pb72  1  0.00722495  0.99621976  0.01726268  1
  Pb  Pb73  1  0.01692884  0.49905746  0.99808302  1
  Pb  Pb74  1  0.51685528  0.99915139  0.00193406  1
  Pb  Pb75  1  0.50732140  0.49634314  0.98274355  1
  C  C76  1  0.28278569  0.04065521  0.39989658  1
  C  C77  1  0.26487255  0.14643147  0.45305408  1
  C  C78  1  0.23134263  0.14745999  0.55704747  1
  C  C79  1  0.21538096  0.24376256  0.61005602  1
  C  C80  1  0.17407736  0.24507513  0.71929856  1
  C  C81  1  0.23294693  0.34051710  0.55868069  1
  C  C82  1  0.26646726  0.34264989  0.45505661  1
  C  C83  1  0.28537564  0.44919059  0.40506578  1
  C  C84  1  0.28251819  0.24500103  0.40174488  1
  C  C85  1  0.32274398  0.24644979  0.29111507  1
  C  C86  1  0.04591430  0.72071283  0.40245271  1
  C  C87  1  0.15034008  0.74154498  0.45415464  1
  C  C88  1  0.15292750  0.77510650  0.55834524  1
  C  C89  1  0.24837957  0.79040860  0.61075178  1
  C  C90  1  0.25117999  0.82568859  0.72263405  1
  C  C91  1  0.34266678  0.77483877  0.55707460  1
  C  C92  1  0.34327112  0.74237489  0.45290319  1
  C  C93  1  0.44711220  0.72400785  0.40048702  1
  C  C94  1  0.24663795  0.72434880  0.40155139  1
  C  C95  1  0.24709096  0.67936654  0.29263059  1
  C  C96  1  0.94709046  0.22397837  0.59951274  1
  C  C97  1  0.84323701  0.24234480  0.54709195  1
  C  C98  1  0.84261039  0.27481273  0.44292079  1
  C  C99  1  0.74831251  0.29038491  0.38924495  1
  C  C100  1  0.75108755  0.32567575  0.27736845  1
  C  C101  1  0.65287143  0.27508773  0.44165578  1
  C  C102  1  0.65030499  0.24152469  0.54584262  1
  C  C103  1  0.54588965  0.22070608  0.59754177  1
  C  C104  1  0.74661870  0.22431682  0.59844335  1
  C  C105  1  0.74710389  0.17931198  0.70735531  1
  C  C106  1  0.78537264  0.94917369  0.59494516  1
  C  C107  1  0.76646161  0.84263412  0.54494244  1
  C  C108  1  0.73295597  0.84050432  0.44131052  1
  C  C109  1  0.71537704  0.74374549  0.38993516  1
  C  C110  1  0.67407124  0.74504420  0.28068489  1
  C  C111  1  0.73132045  0.64744783  0.44295921  1
  C  C112  1  0.76483441  0.64641650  0.54696247  1
  C  C113  1  0.78271336  0.54064128  0.60012714  1
  C  C114  1  0.78249071  0.74498584  0.59827072  1
  C  C115  1  0.82270003  0.74644079  0.70891684  1
  I  I116  1  0.25636451  0.95642232  0.01394293  1
  I  I117  1  0.25766020  0.55464516  0.02306827  1
  I  I118  1  0.75761058  0.05464915  0.97704095  1
  I  I119  1  0.75640318  0.45644962  0.98582076  1
  I  I120  1  0.03358029  0.25108467  0.96463856  1
  I  I121  1  0.93959955  0.74964260  0.00471243  1
  I  I122  1  0.43966083  0.24972802  0.99533360  1
  I  I123  1  0.53381507  0.75113023  0.03514428  1
  I  I124  1  0.01359392  0.98519335  0.77401214  1
  I  I125  1  0.98691391  0.01563821  0.26610748  1
  I  I126  1  0.05701043  0.53454686  0.75240951  1
  I  I127  1  0.02755015  0.44555645  0.24277143  1
  I  I128  1  0.52757448  0.94566251  0.75725797  1
  I  I129  1  0.55700359  0.03451364  0.24761885  1
  I  I130  1  0.48653855  0.51565454  0.73394452  1
  I  I131  1  0.51360039  0.48524461  0.22600204  1
  N  N132  1  0.26040062  0.25210231  0.79961108  1
  N  N133  1  0.23591512  0.24830905  0.20958883  1
  N  N134  1  0.25392829  0.73305705  0.79807953  1
  N  N135  1  0.24735055  0.76367768  0.20782309  1
  N  N136  1  0.75384834  0.23305433  0.20191185  1
  N  N137  1  0.74741104  0.26359578  0.79218129  1
  N  N138  1  0.76038696  0.75210157  0.20039080  1
  N  N139  1  0.73586042  0.74828502  0.79041252  1
