# generated using pymatgen
data_H18PbC10(I2N)2
_symmetry_space_group_name_H-M   'P 1'
_cell_length_a   12.57114398
_cell_length_b   12.63587180
_cell_length_c   12.77067219
_cell_angle_alpha   89.46810697
_cell_angle_beta   89.23236525
_cell_angle_gamma   90.83985281
_symmetry_Int_Tables_number   1
_chemical_formula_structural   H18PbC10(I2N)2
_chemical_formula_sum   'H72 Pb4 C40 I16 N8'
_cell_volume   2028.09647105
_cell_formula_units_Z   4
loop_
 _symmetry_equiv_pos_site_id
 _symmetry_equiv_pos_as_xyz
  1  'x, y, z'
loop_
 _atom_site_type_symbol
 _atom_site_label
 _atom_site_symmetry_multiplicity
 _atom_site_fract_x
 _atom_site_fract_y
 _atom_site_fract_z
 _atom_site_occupancy
  H  H0  1  0.26069340  0.03746095  0.32675914  1
  H  H1  1  0.13612841  0.02563794  0.39143867  1
  H  H2  1  0.25274541  0.98182738  0.45484061  1
  H  H3  1  0.28898561  0.08535063  0.59723749  1
  H  H4  1  0.37441855  0.32776117  0.73089774  1
  H  H5  1  0.37971242  0.18707344  0.72568540  1
  H  H6  1  0.19500758  0.31100202  0.80106842  1
  H  H7  1  0.27860949  0.23869132  0.87000691  1
  H  H8  1  0.19399045  0.18013444  0.78683945  1
  H  H9  1  0.24763151  0.51830947  0.54503431  1
  H  H10  1  0.23911259  0.46272505  0.67312328  1
  H  H11  1  0.36391688  0.47423237  0.60885609  1
  H  H12  1  0.21096263  0.41474528  0.40278425  1
  H  H13  1  0.11976655  0.31295422  0.27460370  1
  H  H14  1  0.12527724  0.17227236  0.26927327  1
  H  H15  1  0.22080548  0.26144829  0.13000113  1
  H  H16  1  0.30519583  0.32040102  0.21302063  1
  H  H17  1  0.30478830  0.18960767  0.19901226  1
  H  H18  1  0.03303650  0.74182269  0.33192817  1
  H  H19  1  0.02407777  0.86334124  0.39868336  1
  H  H20  1  0.97940900  0.74469639  0.46115663  1
  H  H21  1  0.08580596  0.71815092  0.60494840  1
  H  H22  1  0.33118686  0.63966399  0.73650401  1
  H  H23  1  0.18996478  0.63122966  0.73485424  1
  H  H24  1  0.31538403  0.82587840  0.78868870  1
  H  H25  1  0.25090616  0.73955204  0.87043929  1
  H  H26  1  0.18283283  0.81525471  0.78609448  1
  H  H27  1  0.52062343  0.75503448  0.53892269  1
  H  H28  1  0.46704675  0.75858244  0.66814014  1
  H  H29  1  0.47579700  0.63672976  0.60193718  1
  H  H30  1  0.41422036  0.78185990  0.39527314  1
  H  H31  1  0.31005020  0.86897479  0.26545799  1
  H  H32  1  0.16884540  0.86020380  0.26357999  1
  H  H33  1  0.24967255  0.76076583  0.12984498  1
  H  H34  1  0.31773099  0.68497741  0.21426309  1
  H  H35  1  0.18515854  0.67407613  0.21145192  1
  H  H36  1  0.96879888  0.23989798  0.66783997  1
  H  H37  1  0.97743995  0.36538035  0.60488804  1
  H  H38  1  0.02315529  0.25045285  0.53976066  1
  H  H39  1  0.91282694  0.20805641  0.39861879  1
  H  H40  1  0.66378552  0.12490755  0.27346395  1
  H  H41  1  0.80458848  0.11702965  0.27352091  1
  H  H42  1  0.68425109  0.30613821  0.20455351  1
  H  H43  1  0.74729571  0.21801545  0.13039843  1
  H  H44  1  0.81517315  0.29833007  0.20854765  1
  H  H45  1  0.47696189  0.24927697  0.46042722  1
  H  H46  1  0.53125580  0.26044852  0.33236259  1
  H  H47  1  0.52274743  0.13468255  0.39479035  1
  H  H48  1  0.58730661  0.29181987  0.60144196  1
  H  H49  1  0.69557805  0.38275440  0.72659842  1
  H  H50  1  0.83637327  0.37493737  0.72661638  1
  H  H51  1  0.75285819  0.28172692  0.86962653  1
  H  H52  1  0.68513003  0.20133426  0.79137373  1
  H  H53  1  0.81606878  0.19372844  0.79549385  1
  H  H54  1  0.76229599  0.96565492  0.67239962  1
  H  H55  1  0.63758719  0.97293672  0.60989853  1
  H  H56  1  0.75498619  0.02022665  0.54451508  1
  H  H57  1  0.78416001  0.91439963  0.39810954  1
  H  H58  1  0.86438917  0.67438734  0.26271586  1
  H  H59  1  0.86688407  0.81476607  0.26433179  1
  H  H60  1  0.67864091  0.68194792  0.20900386  1
  H  H61  1  0.75978800  0.75284557  0.12939671  1
  H  H62  1  0.67868691  0.81344890  0.21620348  1
  H  H63  1  0.74551082  0.47982368  0.45567276  1
  H  H64  1  0.73741339  0.53430687  0.32782104  1
  H  H65  1  0.86249435  0.52735411  0.38971736  1
  H  H66  1  0.71586428  0.58568241  0.60191473  1
  H  H67  1  0.63277475  0.68532499  0.73547286  1
  H  H68  1  0.63528775  0.82571202  0.73709376  1
  H  H69  1  0.73956698  0.74713141  0.87066367  1
  H  H70  1  0.82087921  0.68665930  0.78398299  1
  H  H71  1  0.82080722  0.81812552  0.79134640  1
  Pb  Pb72  1  0.99868927  1.00244064  0.98576143  1
  Pb  Pb73  1  0.00561023  0.51043061  0.99671553  1
  Pb  Pb74  1  0.49540984  0.99069036  0.00293168  1
  Pb  Pb75  1  0.50254945  0.49744430  0.01402328  1
  C  C76  1  0.22094746  0.04340522  0.40370382  1
  C  C77  1  0.23584777  0.15027495  0.45125938  1
  C  C78  1  0.27099145  0.15798449  0.55430408  1
  C  C79  1  0.28554210  0.25539132  0.60363338  1
  C  C80  1  0.32864884  0.25569527  0.71291018  1
  C  C81  1  0.26410788  0.34981651  0.54875593  1
  C  C82  1  0.27909855  0.45667288  0.59630859  1
  C  C83  1  0.22894287  0.34210769  0.44572189  1
  C  C84  1  0.21430767  0.24469782  0.39642091  1
  C  C85  1  0.17095792  0.24440337  0.28723874  1
  C  C86  1  0.04095980  0.77872048  0.40899429  1
  C  C87  1  0.14888175  0.76290966  0.45362621  1
  C  C88  1  0.15824715  0.73357634  0.55875319  1
  C  C89  1  0.25697548  0.72084123  0.60579762  1
  C  C90  1  0.25892811  0.68311661  0.71758635  1
  C  C91  1  0.35113804  0.73713124  0.54658984  1
  C  C92  1  0.45904020  0.72133203  0.59124878  1
  C  C93  1  0.34177415  0.76645502  0.44147138  1
  C  C94  1  0.24304662  0.77921890  0.39442993  1
  C  C95  1  0.24117898  0.81692679  0.28262417  1
  C  C96  1  0.96089679  0.28072449  0.59184622  1
  C  C97  1  0.85236749  0.26428428  0.54597407  1
  C  C98  1  0.84131026  0.22787298  0.44351278  1
  C  C99  1  0.74162681  0.21352992  0.39726498  1
  C  C100  1  0.73729249  0.16960832  0.28857824  1
  C  C101  1  0.64776703  0.23564235  0.45406176  1
  C  C102  1  0.53922930  0.21928813  0.40817799  1
  C  C103  1  0.65882599  0.27202953  0.55653686  1
  C  C104  1  0.75851117  0.28636091  0.60278339  1
  C  C105  1  0.76288888  0.33020965  0.71149347  1
  C  C106  1  0.72270685  0.95768981  0.59647829  1
  C  C107  1  0.73811102  0.85050341  0.54888428  1
  C  C108  1  0.76766750  0.84208553  0.44343259  1
  C  C109  1  0.77955291  0.74442986  0.39412063  1
  C  C110  1  0.81742384  0.74425476  0.28198008  1
  C  C111  1  0.76193583  0.64957637  0.45113714  1
  C  C112  1  0.77739164  0.54239957  0.40352970  1
  C  C113  1  0.73235537  0.65799573  0.55658435  1
  C  C114  1  0.72040069  0.75565045  0.60587731  1
  C  C115  1  0.68227519  0.75583040  0.71793647  1
  I  I116  1  0.24600487  0.96111030  0.03638390  1
  I  I117  1  0.25425053  0.53471622  0.96086006  1
  I  I118  1  0.74705938  0.05711020  0.98659108  1
  I  I119  1  0.75332258  0.44249515  0.01320097  1
  I  I120  1  0.04964737  0.25705916  0.99605546  1
  I  I121  1  0.94378611  0.75610493  0.01576034  1
  I  I122  1  0.44824978  0.24270794  0.00373733  1
  I  I123  1  0.55402525  0.74398118  0.98368193  1
  I  I124  1  0.02895960  0.99045667  0.73619537  1
  I  I125  1  0.97527473  0.01333035  0.23040128  1
  I  I126  1  0.96985275  0.55485580  0.75096828  1
  I  I127  1  0.05267967  0.52073181  0.24182940  1
  I  I128  1  0.44843775  0.97989646  0.75794668  1
  I  I129  1  0.52995099  0.94548062  0.24876606  1
  I  I130  1  0.52529236  0.48636363  0.76938512  1
  I  I131  1  0.47186586  0.50988895  0.26363013  1
  N  N132  1  0.24295635  0.24572487  0.79712601  1
  N  N133  1  0.25647443  0.25461412  0.20287137  1
  N  N134  1  0.25148639  0.77201852  0.79560268  1
  N  N135  1  0.24899959  0.72805083  0.20463005  1
  N  N136  1  0.74624613  0.25365724  0.20373996  1
  N  N137  1  0.75398543  0.24610585  0.79626846  1
  N  N138  1  0.72771691  0.74794073  0.20476364  1
  N  N139  1  0.77176120  0.75211252  0.79536918  1
