# generated using pymatgen
data_H18PbC10(I2N)2
_symmetry_space_group_name_H-M   'P 1'
_cell_length_a   12.49791965
_cell_length_b   12.38654086
_cell_length_c   13.23653371
_cell_angle_alpha   90.73999337
_cell_angle_beta   90.52027965
_cell_angle_gamma   89.71880618
_symmetry_Int_Tables_number   1
_chemical_formula_structural   H18PbC10(I2N)2
_chemical_formula_sum   'H72 Pb4 C40 I16 N8'
_cell_volume   2048.81585177
_cell_formula_units_Z   4
loop_
 _symmetry_equiv_pos_site_id
 _symmetry_equiv_pos_as_xyz
  1  'x, y, z'
loop_
 _atom_site_type_symbol
 _atom_site_label
 _atom_site_symmetry_multiplicity
 _atom_site_fract_x
 _atom_site_fract_y
 _atom_site_fract_z
 _atom_site_occupancy
  H  H0  1  0.36174227  0.43507807  0.62619131  1
  H  H1  1  0.23051836  0.42617228  0.67162076  1
  H  H2  1  0.25417602  0.48911012  0.55502984  1
  H  H3  1  0.36104550  0.29873869  0.73178201  1
  H  H4  1  0.37753295  0.15628605  0.72569847  1
  H  H5  1  0.27015513  0.20719792  0.86059887  1
  H  H6  1  0.19210901  0.13732090  0.77793432  1
  H  H7  1  0.17919002  0.27003938  0.79051554  1
  H  H8  1  0.28386187  0.04355985  0.59702814  1
  H  H9  1  0.23344819  0.03352804  0.41566690  1
  H  H10  1  0.17062755  0.11546147  0.26937319  1
  H  H11  1  0.13941427  0.25407061  0.26335712  1
  H  H12  1  0.35298333  0.15212943  0.22497531  1
  H  H13  1  0.26936397  0.20602220  0.14059397  1
  H  H14  1  0.33090025  0.28567417  0.22402112  1
  H  H15  1  0.17190045  0.46606709  0.41995858  1
  H  H16  1  0.30754035  0.45452386  0.38199233  1
  H  H17  1  0.20331737  0.39730659  0.30791998  1
  H  H18  1  0.43138429  0.61698562  0.60759755  1
  H  H19  1  0.43069024  0.74577525  0.66512434  1
  H  H20  1  0.48853074  0.72784722  0.54507017  1
  H  H21  1  0.30038377  0.63626895  0.72865883  1
  H  H22  1  0.15851772  0.62853784  0.72754475  1
  H  H23  1  0.22209673  0.74254324  0.85802866  1
  H  H24  1  0.15123399  0.81820894  0.77621101  1
  H  H25  1  0.28501776  0.82613663  0.77910790  1
  H  H26  1  0.04787545  0.72123903  0.60002640  1
  H  H27  1  0.03445724  0.77174130  0.41972254  1
  H  H28  1  0.11340688  0.83619846  0.27316583  1
  H  H29  1  0.25082194  0.86587468  0.26667219  1
  H  H30  1  0.14980679  0.65265702  0.21952243  1
  H  H31  1  0.20409823  0.74107920  0.13948542  1
  H  H32  1  0.28169555  0.67443611  0.21974758  1
  H  H33  1  0.46137461  0.82678193  0.41771848  1
  H  H34  1  0.45243667  0.69099407  0.37400264  1
  H  H35  1  0.39306578  0.79747719  0.30497959  1
  H  H36  1  0.57156443  0.13211777  0.38441565  1
  H  H37  1  0.57436166  0.26408024  0.33557298  1
  H  H38  1  0.51447014  0.24073711  0.45312006  1
  H  H39  1  0.70365971  0.14559172  0.26955854  1
  H  H40  1  0.84498329  0.13605958  0.27061578  1
  H  H41  1  0.78543009  0.25130965  0.14223640  1
  H  H42  1  0.85271706  0.32754707  0.22594131  1
  H  H43  1  0.71944864  0.33366126  0.22013475  1
  H  H44  1  0.95596144  0.22137015  0.40262811  1
  H  H45  1  0.96844081  0.27101343  0.58443007  1
  H  H46  1  0.88912748  0.33963263  0.73106406  1
  H  H47  1  0.75228531  0.37312469  0.73654375  1
  H  H48  1  0.84781928  0.15766209  0.78249125  1
  H  H49  1  0.79673583  0.25080043  0.86345518  1
  H  H50  1  0.71688687  0.18535193  0.78375187  1
  H  H51  1  0.53884706  0.32775539  0.58569314  1
  H  H52  1  0.55304175  0.19275552  0.62598884  1
  H  H53  1  0.60801716  0.30202754  0.69768568  1
  H  H54  1  0.86274419  0.57446924  0.37749937  1
  H  H55  1  0.73037862  0.57623282  0.32966688  1
  H  H56  1  0.75830020  0.51536154  0.44619232  1
  H  H57  1  0.86109543  0.71174308  0.27214305  1
  H  H58  1  0.86433247  0.85483448  0.27435464  1
  H  H59  1  0.75383844  0.78834387  0.14290580  1
  H  H60  1  0.67505873  0.85597514  0.22448019  1
  H  H61  1  0.67399478  0.72177351  0.21975617  1
  H  H62  1  0.78467446  0.96186888  0.40902305  1
  H  H63  1  0.73411122  0.97013182  0.58959592  1
  H  H64  1  0.66512289  0.88783729  0.73317189  1
  H  H65  1  0.62794712  0.75106136  0.73479735  1
  H  H66  1  0.84340230  0.84084933  0.78145869  1
  H  H67  1  0.75696431  0.78092968  0.85981619  1
  H  H68  1  0.82199931  0.70812364  0.77185325  1
  H  H69  1  0.64711908  0.54514006  0.56829181  1
  H  H70  1  0.78083849  0.54167626  0.61420714  1
  H  H71  1  0.67932191  0.60462620  0.68562398  1
  Pb  Pb72  1  0.00243560  0.99893341  0.99073911  1
  Pb  Pb73  1  0.00212299  0.51170390  0.98709794  1
  Pb  Pb74  1  0.49550243  -0.00209819  0.98962451  1
  Pb  Pb75  1  0.51358080  0.50316041  0.01250671  1
  C  C76  1  0.27824101  0.42135585  0.60225255  1
  C  C77  1  0.26649982  0.31414737  0.54887637  1
  C  C78  1  0.28265626  0.21821849  0.60322049  1
  C  C79  1  0.32116540  0.22274583  0.71131939  1
  C  C80  1  0.27051392  0.11761885  0.55481508  1
  C  C81  1  0.24403717  0.11208304  0.45259947  1
  C  C82  1  0.23146571  0.20671295  0.39657086  1
  C  C83  1  0.20164000  0.19627543  0.28645800  1
  C  C84  1  0.24260321  0.30863694  0.44439545  1
  C  C85  1  0.23100216  0.41118573  0.38564949  1
  C  C86  1  0.42172267  0.70351524  0.59215732  1
  C  C87  1  0.31476217  0.72587063  0.54411027  1
  C  C88  1  0.22086891  0.71519760  0.60136935  1
  C  C89  1  0.22670078  0.68041265  0.71003379  1
  C  C90  1  0.12039216  0.73161362  0.55596763  1
  C  C91  1  0.11287769  0.75868592  0.45446793  1
  C  C92  1  0.20546390  0.77016365  0.39660346  1
  C  C93  1  0.19350114  0.80344899  0.28818585  1
  C  C94  1  0.30718620  0.75428581  0.44124910  1
  C  C95  1  0.40784839  0.76749927  0.38129828  1
  C  C96  1  0.58198688  0.21763297  0.40549851  1
  C  C97  1  0.68860959  0.23492997  0.45613099  1
  C  C98  1  0.78282649  0.22272903  0.39912159  1
  C  C99  1  0.77723017  0.18918552  0.28944294  1
  C  C100  1  0.88314620  0.23451358  0.44612695  1
  C  C101  1  0.89016165  0.26082153  0.54850805  1
  C  C102  1  0.79730984  0.27404360  0.60612759  1
  C  C103  1  0.80872238  0.30865325  0.71521525  1
  C  C104  1  0.69579730  0.25983602  0.56040195  1
  C  C105  1  0.59485907  0.27053415  0.62091840  1
  C  C106  1  0.77848857  0.58421009  0.39934193  1
  C  C107  1  0.76143214  0.69098391  0.45227166  1
  C  C108  1  0.77937103  0.78748939  0.39982307  1
  C  C109  1  0.81479467  0.78452739  0.29151951  1
  C  C110  1  0.76878921  0.88751407  0.44952932  1
  C  C111  1  0.74116783  0.89203832  0.55108671  1
  C  C112  1  0.72290870  0.79694369  0.60452341  1
  C  C113  1  0.69263422  0.80599192  0.71434955  1
  C  C114  1  0.73134812  0.69566677  0.55490118  1
  C  C115  1  0.70863258  0.59232797  0.60872807  1
  I  I116  1  0.24558818  0.92727177  0.02036082  1
  I  I117  1  0.24949536  0.57174079  0.98333093  1
  I  I118  1  0.74590741  0.06215119  0.00145119  1
  I  I119  1  0.75397051  0.42164835  0.99019348  1
  I  I120  1  0.05339373  0.25214003  0.98297444  1
  I  I121  1  0.92680006  0.75427316  0.02280401  1
  I  I122  1  0.42307630  0.24589880  0.98681453  1
  I  I123  1  0.58254290  0.74913414  0.99015750  1
  I  I124  1  0.99498755  0.99284624  0.73939673  1
  I  I125  1  0.99449179  0.01021109  0.22456523  1
  I  I126  1  0.96432047  0.55556931  0.75214611  1
  I  I127  1  0.00410602  0.49587406  0.22733956  1
  I  I128  1  0.44270841  0.95764659  0.75429342  1
  I  I129  1  0.49730849  0.99816587  0.22907549  1
  I  I130  1  0.50205087  0.49613977  0.78398786  1
  I  I131  1  0.51673751  0.48372451  0.25939467  1
  N  N132  1  0.23444743  0.20815943  0.78862216  1
  N  N133  1  0.29411047  0.21164410  0.21544956  1
  N  N134  1  0.22055731  0.77310174  0.78504679  1
  N  N135  1  0.20836269  0.71200304  0.21280847  1
  N  N136  1  0.78410194  0.28128405  0.21589636  1
  N  N137  1  0.79154529  0.21940935  0.79005768  1
  N  N138  1  0.72337009  0.78799078  0.21598657  1
  N  N139  1  0.78429769  0.78233073  0.78590222  1
