# generated using pymatgen
data_H18PbC10(I2N)2
_symmetry_space_group_name_H-M   'P 1'
_cell_length_a   13.35596182
_cell_length_b   12.64830529
_cell_length_c   13.07358243
_cell_angle_alpha   90.58529059
_cell_angle_beta   88.00499862
_cell_angle_gamma   90.16452186
_symmetry_Int_Tables_number   1
_chemical_formula_structural   H18PbC10(I2N)2
_chemical_formula_sum   'H72 Pb4 C40 I16 N8'
_cell_volume   2207.06316244
_cell_formula_units_Z   4
loop_
 _symmetry_equiv_pos_site_id
 _symmetry_equiv_pos_as_xyz
  1  'x, y, z'
loop_
 _atom_site_type_symbol
 _atom_site_label
 _atom_site_symmetry_multiplicity
 _atom_site_fract_x
 _atom_site_fract_y
 _atom_site_fract_z
 _atom_site_occupancy
  H  H0  1  0.19926756  0.04751730  0.34582352  1
  H  H1  1  0.22324937  0.00041575  0.46967296  1
  H  H2  1  0.32236787  0.05474275  0.39266295  1
  H  H3  1  0.17961523  0.10704527  0.60795972  1
  H  H4  1  0.07356329  0.34096308  0.73038722  1
  H  H5  1  0.09993439  0.20362187  0.74228553  1
  H  H6  1  0.22640405  0.38970777  0.78990315  1
  H  H7  1  0.27352417  0.26521812  0.78603975  1
  H  H8  1  0.17748074  0.29738858  0.86838525  1
  H  H9  1  0.16395528  0.44621513  0.58619453  1
  H  H10  1  0.21346028  0.43332391  0.40298476  1
  H  H11  1  0.28533395  0.17608377  0.26971401  1
  H  H12  1  0.37349254  0.31948993  0.18346095  1
  H  H13  1  0.32003959  0.41576242  0.26801704  1
  H  H14  1  0.40523372  0.32182174  0.31400671  1
  H  H15  1  0.12119958  0.21120632  0.22469144  1
  H  H16  1  0.13160544  0.34360190  0.24111863  1
  H  H17  1  0.19517661  0.28419765  0.14579681  1
  H  H18  1  0.06524487  0.81411580  0.33549235  1
  H  H19  1  0.01078235  0.78845602  0.45789790  1
  H  H20  1  0.06222158  0.68320499  0.38207032  1
  H  H21  1  0.10282183  0.82924655  0.59947203  1
  H  H22  1  0.31440305  0.93889670  0.72616167  1
  H  H23  1  0.18445225  0.90513116  0.73686280  1
  H  H24  1  0.35863319  0.76984455  0.78022561  1
  H  H25  1  0.23740401  0.72481907  0.78411231  1
  H  H26  1  0.27579837  0.82390273  0.86351018  1
  H  H27  1  0.42529589  0.83783084  0.58713135  1
  H  H28  1  0.42562554  0.77797499  0.40791939  1
  H  H29  1  0.19385164  0.69627598  0.27115424  1
  H  H30  1  0.34063603  0.61448446  0.19046944  1
  H  H31  1  0.42345969  0.68669722  0.26782411  1
  H  H32  1  0.34536142  0.58811118  0.32341089  1
  H  H33  1  0.21969191  0.87448662  0.22145938  1
  H  H34  1  0.34395084  0.86939011  0.23441193  1
  H  H35  1  0.28909467  0.80005811  0.14259888  1
  H  H36  1  0.91911290  0.31113844  0.67527066  1
  H  H37  1  0.98070093  0.28978373  0.55441706  1
  H  H38  1  0.93110422  0.18125358  0.62488532  1
  H  H39  1  0.89708642  0.31316234  0.40688257  1
  H  H40  1  0.70045336  0.41995210  0.27126846  1
  H  H41  1  0.82577957  0.37264302  0.26196723  1
  H  H42  1  0.64518184  0.23992295  0.22181498  1
  H  H43  1  0.76412518  0.20930395  0.19238805  1
  H  H44  1  0.70731454  0.30968215  0.13448280  1
  H  H45  1  0.57470951  0.31794077  0.40307330  1
  H  H46  1  0.56644291  0.26865990  0.58483518  1
  H  H47  1  0.79419316  0.19615029  0.73217974  1
  H  H48  1  0.65201896  0.10753394  0.80667365  1
  H  H49  1  0.56559024  0.17562909  0.73125733  1
  H  H50  1  0.64814409  0.08171832  0.67346397  1
  H  H51  1  0.76197856  0.36484391  0.80128930  1
  H  H52  1  0.64548333  0.37049281  0.75672526  1
  H  H53  1  0.67028789  0.29201940  0.85386793  1
  H  H54  1  0.71997228  0.93712440  0.66609010  1
  H  H55  1  0.73563806  0.99144156  0.54162722  1
  H  H56  1  0.83927207  0.93633461  0.60379821  1
  H  H57  1  0.69315755  0.89313135  0.40275097  1
  H  H58  1  0.58641563  0.66404605  0.27502228  1
  H  H59  1  0.60590938  0.80401947  0.27198797  1
  H  H60  1  0.75565163  0.63951724  0.20773354  1
  H  H61  1  0.77336054  0.77000218  0.19973762  1
  H  H62  1  0.68312728  0.71099872  0.13323976  1
  H  H63  1  0.66922577  0.55354012  0.41016256  1
  H  H64  1  0.72628525  0.55540255  0.58656245  1
  H  H65  1  0.80391489  0.80382798  0.72805833  1
  H  H66  1  0.88951058  0.65527026  0.80132915  1
  H  H67  1  0.83762947  0.56405499  0.71335942  1
  H  H68  1  0.92480972  0.66139655  0.66984227  1
  H  H69  1  0.63961612  0.76446648  0.78386639  1
  H  H70  1  0.64946721  0.63485722  0.75698639  1
  H  H71  1  0.71479512  0.68606746  0.85232969  1
  Pb  Pb72  1  0.97835793  1.00372804  1.00149998  1
  Pb  Pb73  1  0.01545406  0.52176404  0.00425155  1
  Pb  Pb74  1  0.49897010  0.99223719  0.00586306  1
  Pb  Pb75  1  0.48296894  0.49806000  0.96658968  1
  C  C76  1  0.24242741  0.06250515  0.41469014  1
  C  C77  1  0.21977907  0.16967136  0.45968461  1
  C  C78  1  0.19056735  0.17898419  0.56328548  1
  C  C79  1  0.17057905  0.27700842  0.60972257  1
  C  C80  1  0.13144663  0.28030066  0.71873922  1
  C  C81  1  0.18000958  0.36908018  0.55125741  1
  C  C82  1  0.20772270  0.36109067  0.44785892  1
  C  C83  1  0.22710309  0.26251827  0.40111695  1
  C  C84  1  0.25987961  0.25639780  0.28908314  1
  C  C85  1  0.34384150  0.33297767  0.26174778  1
  C  C86  1  0.07278475  0.76645874  0.40481803  1
  C  C87  1  0.17162216  0.78406000  0.45409155  1
  C  C88  1  0.17353868  0.81646200  0.55674486  1
  C  C89  1  0.26321087  0.83597111  0.60568653  1
  C  C90  1  0.25936818  0.87567160  0.71451250  1
  C  C91  1  0.35436095  0.82201927  0.55089718  1
  C  C92  1  0.35397253  0.78858250  0.44930010  1
  C  C93  1  0.26389713  0.76943430  0.40016930  1
  C  C94  1  0.26651314  0.73069589  0.29023988  1
  C  C95  1  0.34875178  0.65088304  0.26617907  1
  C  C96  1  0.91775424  0.26414437  0.60406237  1
  C  C97  1  0.82124643  0.27687341  0.55034465  1
  C  C98  1  0.82453714  0.30183356  0.44633604  1
  C  C99  1  0.73764616  0.31504795  0.39169194  1
  C  C100  1  0.74829304  0.35089952  0.28298629  1
  C  C101  1  0.64403107  0.30417330  0.44282671  1
  C  C102  1  0.63954072  0.27752696  0.54606239  1
  C  C103  1  0.72719806  0.26323171  0.60054256  1
  C  C104  1  0.72130837  0.22747463  0.71093906  1
  C  C105  1  0.64189309  0.14376930  0.73189822  1
  C  C106  1  0.75871563  0.92705822  0.59118025  1
  C  C107  1  0.73485678  0.82197320  0.54375239  1
  C  C108  1  0.70291750  0.81877379  0.44299189  1
  C  C109  1  0.68025731  0.72395862  0.39323851  1
  C  C110  1  0.64094704  0.72759379  0.28739459  1
  C  C111  1  0.68910894  0.62866172  0.44603948  1
  C  C112  1  0.72066333  0.63033084  0.54649179  1
  C  C113  1  0.74330377  0.72570813  0.59651324  1
  C  C114  1  0.77815348  0.72458418  0.70593089  1
  C  C115  1  0.86184149  0.64647328  0.72366308  1
  I  I116  1  0.26266041  0.98019669  0.99505371  1
  I  I117  1  0.26143965  0.48176548  0.02819409  1
  I  I118  1  0.74851457  1.00446376  0.05160108  1
  I  I119  1  0.77890319  0.49925323  0.97650945  1
  I  I120  1  0.02232726  0.26285666  0.98240305  1
  I  I121  1  -0.00392523  0.76349345  0.07149816  1
  I  I122  1  0.51613617  0.24769349  0.97708974  1
  I  I123  1  0.51943860  0.74333631  0.03061142  1
  I  I124  1  0.98524425  0.99023217  0.75864442  1
  I  I125  1  0.01207307  0.05228405  0.24134724  1
  I  I126  1  0.11981885  0.57395926  0.77338103  1
  I  I127  1  0.00658801  0.49418004  0.24772870  1
  I  I128  1  0.52161566  0.90541369  0.77028685  1
  I  I129  1  0.48969903  0.00676010  0.25008437  1
  I  I130  1  0.50842654  0.49860576  0.71509660  1
  I  I131  1  0.54442331  0.48003900  0.19049127  1
  N  N132  1  0.20943921  0.30948981  0.79496857  1
  N  N133  1  0.17201711  0.27505232  0.22134281  1
  N  N134  1  0.28415283  0.79138376  0.79002397  1
  N  N135  1  0.28034651  0.82406879  0.21810381  1
  N  N136  1  0.71477937  0.27149798  0.20359456  1
  N  N137  1  0.70024225  0.31950848  0.78429790  1
  N  N138  1  0.71973191  0.71115486  0.20256168  1
  N  N139  1  0.69063800  0.70090775  0.77965286  1
