# generated using pymatgen
data_H18PbC12S2(I2N)2
_symmetry_space_group_name_H-M   'P 1'
_cell_length_a   12.43232796
_cell_length_b   12.42211307
_cell_length_c   18.21631668
_cell_angle_alpha   89.50033188
_cell_angle_beta   89.54651382
_cell_angle_gamma   90.19092997
_symmetry_Int_Tables_number   1
_chemical_formula_structural   H18PbC12S2(I2N)2
_chemical_formula_sum   'H72 Pb4 C48 S8 I16 N8'
_cell_volume   2813.03977481
_cell_formula_units_Z   4
loop_
 _symmetry_equiv_pos_site_id
 _symmetry_equiv_pos_as_xyz
  1  'x, y, z'
loop_
 _atom_site_type_symbol
 _atom_site_label
 _atom_site_symmetry_multiplicity
 _atom_site_fract_x
 _atom_site_fract_y
 _atom_site_fract_z
 _atom_site_occupancy
  H  H0  1  0.22349778  0.15804965  0.86853635  1
  H  H1  1  0.19584359  0.28369746  0.89039918  1
  H  H2  1  0.32142226  0.23821488  0.90092085  1
  H  H3  1  0.31451959  0.35189151  0.79241827  1
  H  H4  1  0.34494217  0.21595369  0.77028069  1
  H  H5  1  0.11702021  0.31385641  0.76647931  1
  H  H6  1  0.15088987  0.18038556  0.74178213  1
  H  H7  1  0.21897034  0.14748169  0.60787907  1
  H  H8  1  0.26334929  0.07303357  0.49185804  1
  H  H9  1  0.30505834  0.03757512  0.35227115  1
  H  H10  1  0.36823875  0.14869587  0.23485397  1
  H  H11  1  0.38003167  0.29029083  0.24247903  1
  H  H12  1  0.17880568  0.30931173  0.22524079  1
  H  H13  1  0.16812679  0.16696130  0.21535520  1
  H  H14  1  0.18070470  0.25921026  0.09765660  1
  H  H15  1  0.30047249  0.31257366  0.11965064  1
  H  H16  1  0.28774838  0.18081491  0.10925848  1
  H  H17  1  0.25422844  0.46941721  0.51124769  1
  H  H18  1  0.16081343  0.78215620  0.86936307  1
  H  H19  1  0.28801922  0.80783544  0.88906294  1
  H  H20  1  0.23927786  0.68311874  0.90303058  1
  H  H21  1  0.35108528  0.68627049  0.79371563  1
  H  H22  1  0.21420183  0.65611574  0.77381198  1
  H  H23  1  0.31337172  0.88379375  0.76374785  1
  H  H24  1  0.18046811  0.84851081  0.73943696  1
  H  H25  1  0.14763061  0.77812062  0.60736628  1
  H  H26  1  0.07305110  0.73865142  0.49150866  1
  H  H27  1  0.03711691  0.69602436  0.35254181  1
  H  H28  1  0.14800361  0.62783026  0.23632966  1
  H  H29  1  0.28918987  0.61559660  0.24429702  1
  H  H30  1  0.31027120  0.81669923  0.22444693  1
  H  H31  1  0.16792605  0.82776950  0.21438671  1
  H  H32  1  0.25940555  0.81378434  0.09718123  1
  H  H33  1  0.31208504  0.69347471  0.12104341  1
  H  H34  1  0.18029807  0.70655934  0.11057676  1
  H  H35  1  0.46924768  0.74391956  0.51144691  1
  H  H36  1  0.84347317  0.27593687  0.13079844  1
  H  H37  1  0.71840286  0.30591492  0.10920477  1
  H  H38  1  0.76188246  0.17962553  0.09825653  1
  H  H39  1  0.64929129  0.18629526  0.20690331  1
  H  H40  1  0.78498026  0.15413953  0.22843847  1
  H  H41  1  0.68896226  0.38279352  0.23448143  1
  H  H42  1  0.82228824  0.34810911  0.25823189  1
  H  H43  1  0.85517754  0.27909982  0.39282305  1
  H  H44  1  0.92819358  0.24177553  0.50970499  1
  H  H45  1  0.96325218  0.19945672  0.64906979  1
  H  H46  1  0.85178698  0.13066851  0.76633423  1
  H  H47  1  0.71013331  0.11809719  0.75850951  1
  H  H48  1  0.69101647  0.32024679  0.77276301  1
  H  H49  1  0.83315890  0.33108550  0.78307868  1
  H  H50  1  0.74288104  0.32154956  0.90110101  1
  H  H51  1  0.68536547  0.20339271  0.87991045  1
  H  H52  1  0.81717248  0.21123538  0.88997819  1
  H  H53  1  0.53219388  0.24514866  0.48767702  1
  H  H54  1  0.71843323  0.84220691  0.13126637  1
  H  H55  1  0.68914778  0.71614775  0.11091162  1
  H  H56  1  0.81510051  0.76139278  0.09729131  1
  H  H57  1  0.81099833  0.64931893  0.20604749  1
  H  H58  1  0.84258660  0.78595242  0.22654749  1
  H  H59  1  0.61455059  0.68789509  0.23653248  1
  H  H60  1  0.65000353  0.82113465  0.26012647  1
  H  H61  1  0.71939104  0.85419713  0.39325648  1
  H  H62  1  0.75836154  0.92808974  0.50912531  1
  H  H63  1  0.80193641  0.96386243  0.64757107  1
  H  H64  1  0.87037251  0.85257044  0.76405720  1
  H  H65  1  0.88256829  0.71126309  0.75612864  1
  H  H66  1  0.68123455  0.69039996  0.77506213  1
  H  H67  1  0.67058619  0.83272318  0.78557735  1
  H  H68  1  0.68356801  0.74181257  0.90295820  1
  H  H69  1  0.80205165  0.68585725  0.87886174  1
  H  H70  1  0.79273590  0.81816679  0.88945431  1
  H  H71  1  0.75412910  0.53160490  0.48827401  1
  Pb  Pb72  1  0.00442082  0.00006041  0.00890416  1
  Pb  Pb73  1  0.99719462  0.49851863  0.99884790  1
  Pb  Pb74  1  0.50485948  0.99901853  0.99868419  1
  Pb  Pb75  1  0.49832592  0.49852001  0.99283624  1
  C  C76  1  0.28128430  0.27001332  0.78962666  1
  C  C77  1  0.18087620  0.26392063  0.74189262  1
  C  C78  1  0.20343623  0.29908778  0.66444531  1
  C  C79  1  0.22142042  0.23504364  0.60443483  1
  C  C80  1  0.24295084  0.29459541  0.53808832  1
  C  C81  1  0.26354361  0.24502529  0.46723345  1
  C  C82  1  0.27213052  0.13667599  0.45076966  1
  C  C83  1  0.29442984  0.11736251  0.37554043  1
  C  C84  1  0.30311422  0.21029691  0.33405573  1
  C  C85  1  0.32584650  0.22141286  0.25357372  1
  C  C86  1  0.22266079  0.23632345  0.20971328  1
  C  C87  1  0.24112044  0.40448013  0.55071707  1
  C  C88  1  0.26964647  0.72003415  0.79080981  1
  C  C89  1  0.26374563  0.81883992  0.74052165  1
  C  C90  1  0.29913494  0.79479279  0.66374413  1
  C  C91  1  0.23511491  0.77584235  0.60402078  1
  C  C92  1  0.29463295  0.75403240  0.53810750  1
  C  C93  1  0.24496718  0.73270163  0.46761221  1
  C  C94  1  0.13657510  0.72706814  0.45089197  1
  C  C95  1  0.11702455  0.70426611  0.37600153  1
  C  C96  1  0.20986585  0.69216249  0.33513223  1
  C  C97  1  0.22091813  0.66991335  0.25494477  1
  C  C98  1  0.23677361  0.77293870  0.20964472  1
  C  C99  1  0.40443545  0.75686081  0.55073623  1
  C  C100  1  0.73142264  0.21865827  0.20970950  1
  C  C101  1  0.73891514  0.31811795  0.25814319  1
  C  C102  1  0.70427133  0.29402234  0.33541524  1
  C  C103  1  0.76770970  0.27617628  0.39575985  1
  C  C104  1  0.70733299  0.25496042  0.46182775  1
  C  C105  1  0.75613666  0.23394036  0.53291879  1
  C  C106  1  0.86438757  0.22925431  0.55015997  1
  C  C107  1  0.88341849  0.20621234  0.62531060  1
  C  C108  1  0.79028359  0.19286567  0.66599037  1
  C  C109  1  0.77894329  0.17204893  0.74673182  1
  C  C110  1  0.76378594  0.27668251  0.78914638  1
  C  C111  1  0.59766191  0.25762377  0.44862671  1
  C  C112  1  0.77821373  0.73120270  0.20928031  1
  C  C113  1  0.67952369  0.73774354  0.25952122  1
  C  C114  1  0.70370295  0.70291591  0.33640075  1
  C  C115  1  0.72208950  0.76666125  0.39631736  1
  C  C116  1  0.74385286  0.70662986  0.46212055  1
  C  C117  1  0.76495737  0.75592587  0.53275294  1
  C  C118  1  0.77036963  0.86435518  0.54957542  1
  C  C119  1  0.79383842  0.88376921  0.62435337  1
  C  C120  1  0.80645434  0.79075267  0.66508879  1
  C  C121  1  0.82838256  0.77962856  0.74534709  1
  C  C122  1  0.72515262  0.76365108  0.79024416  1
  C  C123  1  0.74149396  0.59681511  0.44918473  1
  S  S124  1  0.28280269  0.32220243  0.38827915  1
  S  S125  1  0.21304694  0.43379004  0.64030567  1
  S  S126  1  0.32192144  0.70910162  0.38950717  1
  S  S127  1  0.43375396  0.78597852  0.63989110  1
  S  S128  1  0.67866669  0.20906979  0.61097366  1
  S  S129  1  0.56974337  0.28535893  0.35881849  1
  S  S130  1  0.78927455  0.67871657  0.61068410  1
  S  S131  1  0.71297756  0.56828804  0.35985114  1
  I  I132  1  0.25507485  0.96939755  0.01284917  1
  I  I133  1  0.24765344  0.53307630  0.99282999  1
  I  I134  1  0.75551556  0.03334139  0.99514026  1
  I  I135  1  0.74688079  0.45908652  0.00295743  1
  I  I136  1  0.03779690  0.25012518  0.99331673  1
  I  I137  1  0.97106186  0.74925295  0.01176803  1
  I  I138  1  0.46385754  0.24809389  0.99909876  1
  I  I139  1  0.53721331  0.74798550  0.99603920  1
  I  I140  1  0.03696586  0.99596413  0.83186772  1
  I  I141  1  0.98372739  0.00321408  0.18064812  1
  I  I142  1  0.99251809  0.52002859  0.82435625  1
  I  I143  1  0.99372698  0.47013735  0.17283649  1
  I  I144  1  0.50138362  0.01455191  0.82370388  1
  I  I145  1  0.51532201  0.97899605  0.17301066  1
  I  I146  1  0.51678300  0.49961867  0.82145572  1
  I  I147  1  0.47855098  0.49940111  0.17145850  1
  N  N148  1  0.25427482  0.23555943  0.86680532  1
  N  N149  1  0.24923666  0.24813103  0.12935859  1
  N  N150  1  0.23745871  0.75013420  0.86772207  1
  N  N151  1  0.24811834  0.74487359  0.12987394  1
  N  N152  1  0.76558372  0.24623507  0.13246975  1
  N  N153  1  0.75145565  0.25207559  0.86965926  1
  N  N154  1  0.74850848  0.76463894  0.13263041  1
  N  N155  1  0.75260678  0.75142444  0.87019898  1
