# generated using pymatgen
data_H6PbC2S(IN)4
_symmetry_space_group_name_H-M   'P 1'
_cell_length_a   12.09862808
_cell_length_b   12.07293301
_cell_length_c   10.49946144
_cell_angle_alpha   92.82839580
_cell_angle_beta   92.49910137
_cell_angle_gamma   90.03760130
_symmetry_Int_Tables_number   1
_chemical_formula_structural   H6PbC2S(IN)4
_chemical_formula_sum   'H24 Pb4 C8 S4 I16 N16'
_cell_volume   1530.28242719
_cell_formula_units_Z   4
loop_
 _symmetry_equiv_pos_site_id
 _symmetry_equiv_pos_as_xyz
  1  'x, y, z'
loop_
 _atom_site_type_symbol
 _atom_site_label
 _atom_site_symmetry_multiplicity
 _atom_site_fract_x
 _atom_site_fract_y
 _atom_site_fract_z
 _atom_site_occupancy
  H  H0  1  0.25723752  0.24567643  0.81474554  1
  H  H1  1  0.18396193  0.32748174  0.71625734  1
  H  H2  1  0.32218738  0.33240133  0.71913417  1
  H  H3  1  0.32831429  0.13227060  0.64368552  1
  H  H4  1  0.18125259  0.13238116  0.63718693  1
  H  H5  1  0.25562768  0.28124357  0.18444242  1
  H  H6  1  0.24372587  0.74800061  0.81318965  1
  H  H7  1  0.33049141  0.81175850  0.71747447  1
  H  H8  1  0.32494515  0.67182821  0.71514219  1
  H  H9  1  0.13217506  0.67081091  0.63469687  1
  H  H10  1  0.13248987  0.81870313  0.64334866  1
  H  H11  1  0.28426724  0.74927219  0.18388812  1
  H  H12  1  0.75661380  0.25216103  0.18748965  1
  H  H13  1  0.67509358  0.32832103  0.28514986  1
  H  H14  1  0.66953146  0.18837250  0.28286915  1
  H  H15  1  0.86726367  0.18156735  0.35799081  1
  H  H16  1  0.86770138  0.32944573  0.36624995  1
  H  H17  1  0.71443504  0.25192777  0.81677534  1
  H  H18  1  0.74288140  0.75365774  0.18528544  1
  H  H19  1  0.67859417  0.66677401  0.28140637  1
  H  H20  1  0.81683693  0.67198361  0.28334769  1
  H  H21  1  0.81968989  0.86682814  0.36291711  1
  H  H22  1  0.67265133  0.86713500  0.35647269  1
  H  H23  1  0.74458544  0.71748420  0.81542288  1
  Pb  Pb24  1  0.99742721  0.00085870  0.99825918  1
  Pb  Pb25  1  0.00182118  0.50124721  0.99974047  1
  Pb  Pb26  1  0.49903233  0.00106674  0.99833366  1
  Pb  Pb27  1  0.50026850  0.50166001  0.00111711  1
  C  C28  1  0.25487217  0.18471079  0.62558044  1
  C  C29  1  0.25433757  0.22891564  0.49555102  1
  C  C30  1  0.18425877  0.74474714  0.62410038  1
  C  C31  1  0.22940453  0.74543393  0.49417587  1
  C  C32  1  0.81549754  0.25560645  0.37684302  1
  C  C33  1  0.76999210  0.25520970  0.50661619  1
  C  C34  1  0.74601274  0.81456782  0.37453618  1
  C  C35  1  0.74645778  0.77021008  0.50450000  1
  S  S36  1  0.26196749  0.15167526  0.35580593  1
  S  S37  1  0.15318756  0.74582054  0.35353218  1
  S  S38  1  0.84591615  0.25508326  0.64751512  1
  S  S39  1  0.73866985  0.84723414  0.64438753  1
  I  I40  1  0.24832705  0.08717048  0.99533478  1
  I  I41  1  0.25085360  0.42450940  0.02450153  1
  I  I42  1  0.74933376  0.91001973  0.00336409  1
  I  I43  1  0.75073561  0.57274775  0.97485385  1
  I  I44  1  0.91076930  0.25077860  0.00886414  1
  I  I45  1  0.08880808  0.75093444  0.99065730  1
  I  I46  1  0.57402909  0.24952599  0.98137856  1
  I  I47  1  0.42489560  0.75235505  0.01914778  1
  I  I48  1  0.99028365  -0.00047641  0.69088803  1
  I  I49  1  0.00839124  0.00140625  0.30542186  1
  I  I50  1  0.02662945  0.46620621  0.69383198  1
  I  I51  1  0.97472236  0.53389066  0.30571943  1
  I  I52  1  0.47661720  0.96447164  0.69277679  1
  I  I53  1  0.52426247  0.03550840  0.30461595  1
  I  I54  1  0.44665412  0.50260953  0.69836661  1
  I  I55  1  0.55344970  0.49835791  0.30347929  1
  N  N56  1  0.25490971  0.27751514  0.72436961  1
  N  N57  1  0.24756875  0.33813139  0.47803829  1
  N  N58  1  0.24801529  0.36192230  0.35826146  1
  N  N59  1  0.25492118  0.27207107  0.28359230  1
  N  N60  1  0.27629423  0.74431913  0.72290311  1
  N  N61  1  0.33881501  0.74713451  0.47782016  1
  N  N62  1  0.36391220  0.74855701  0.35838427  1
  N  N63  1  0.27450820  0.74959949  0.28288866  1
  N  N64  1  0.72375464  0.25587600  0.27765690  1
  N  N65  1  0.66054438  0.25341606  0.52263365  1
  N  N66  1  0.63519921  0.25216286  0.64203438  1
  N  N67  1  0.72439361  0.25139794  0.71777485  1
  N  N68  1  0.74575359  0.72179841  0.27565462  1
  N  N69  1  0.75311423  0.66096614  0.52178472  1
  N  N70  1  0.75242729  0.63696940  0.64150797  1
  N  N71  1  0.74539229  0.72665019  0.71632988  1
