# generated using pymatgen
data_H5PbC2SI4N3
_symmetry_space_group_name_H-M   'P 1'
_cell_length_a   12.19258851
_cell_length_b   12.15869330
_cell_length_c   9.97347513
_cell_angle_alpha   90.15823716
_cell_angle_beta   87.20618130
_cell_angle_gamma   91.65420838
_symmetry_Int_Tables_number   1
_chemical_formula_structural   H5PbC2SI4N3
_chemical_formula_sum   'H20 Pb4 C8 S4 I16 N12'
_cell_volume   1476.15306002
_cell_formula_units_Z   4
loop_
 _symmetry_equiv_pos_site_id
 _symmetry_equiv_pos_as_xyz
  1  'x, y, z'
loop_
 _atom_site_type_symbol
 _atom_site_label
 _atom_site_symmetry_multiplicity
 _atom_site_fract_x
 _atom_site_fract_y
 _atom_site_fract_z
 _atom_site_occupancy
  H  H0  1  0.26227958  0.30626113  0.76827004  1
  H  H1  1  0.31769005  0.17440891  0.74242190  1
  H  H2  1  0.17895181  0.19265791  0.75701590  1
  H  H3  1  0.25305864  0.39357980  0.31443631  1
  H  H4  1  0.26759516  0.19105482  0.24659723  1
  H  H5  1  0.29900494  0.73508272  0.76339115  1
  H  H6  1  0.17212128  0.66811428  0.75057472  1
  H  H7  1  0.18087302  0.80797362  0.73832463  1
  H  H8  1  0.39254076  0.78544822  0.30906816  1
  H  H9  1  0.19671045  0.73842569  0.24350121  1
  H  H10  1  0.70385988  0.26366228  0.23730972  1
  H  H11  1  0.81606373  0.18405605  0.26514743  1
  H  H12  1  0.83550048  0.32298852  0.25669439  1
  H  H13  1  0.60914730  0.20869290  0.69548870  1
  H  H14  1  0.80464639  0.25608967  0.75919552  1
  H  H15  1  0.74941186  0.71058708  0.23261269  1
  H  H16  1  0.82181909  0.83267311  0.25951762  1
  H  H17  1  0.68255829  0.83429832  0.27015511  1
  H  H18  1  0.72641999  0.60149109  0.68464131  1
  H  H19  1  0.73005616  0.80147359  0.76303766  1
  Pb  Pb20  1  0.99797252  0.99079455  0.99369933  1
  Pb  Pb21  1  0.99287082  0.49561466  0.99107134  1
  Pb  Pb22  1  0.49814311  0.99180450  0.99682937  1
  Pb  Pb23  1  0.50025433  0.49445198  0.00685770  1
  C  C24  1  0.25457844  0.24234832  0.57645037  1
  C  C25  1  0.25324858  0.32570494  0.38508177  1
  C  C26  1  0.23987882  0.72952484  0.57159753  1
  C  C27  1  0.32509650  0.76076001  0.37898893  1
  C  C28  1  0.76031751  0.26471283  0.43189913  1
  C  C29  1  0.67550908  0.23507663  0.62504262  1
  C  C30  1  0.75048566  0.76342328  0.43139501  1
  C  C31  1  0.73571862  0.67193598  0.61749456  1
  S  S32  1  0.27365924  0.13156021  0.47124792  1
  S  S33  1  0.13308013  0.70008896  0.46831719  1
  S  S34  1  0.86703471  0.29605165  0.53474909  1
  S  S35  1  0.74580989  0.87131195  0.54338715  1
  I  I36  1  0.24410602  0.03605906  0.08789200  1
  I  I37  1  0.24557046  0.46702305  0.92026946  1
  I  I38  1  0.75029427  0.98521612  0.88826178  1
  I  I39  1  0.74482207  0.58386369  0.03795290  1
  I  I40  1  0.98141340  0.24347389  0.89549428  1
  I  I41  1  0.03901899  0.74346374  0.08867264  1
  I  I42  1  0.56015979  0.24819954  0.07574704  1
  I  I43  1  0.45992766  0.74549499  0.90336768  1
  I  I44  1  0.07683252  0.96503156  0.68872999  1
  I  I45  1  0.92104826  0.02411102  0.30808375  1
  I  I46  1  0.98529950  0.57573330  0.68737687  1
  I  I47  1  0.00343646  0.42797770  0.30039088  1
  I  I48  1  0.44009590  0.03491883  0.69312024  1
  I  I49  1  0.55221842  0.96302161  0.30377978  1
  I  I50  1  0.53909372  0.44533859  0.69252967  1
  I  I51  1  0.45517585  0.53937098  0.31581998  1
  N  N52  1  0.25297639  0.22920525  0.71931478  1
  N  N53  1  0.24536755  0.33849387  0.51929295  1
  N  N54  1  0.26558761  0.22202755  0.34439313  1
  N  N55  1  0.22330169  0.73343311  0.71504719  1
  N  N56  1  0.33428215  0.75993246  0.51361595  1
  N  N57  1  0.22388543  0.73932848  0.34047993  1
  N  N58  1  0.77802215  0.26057070  0.28869578  1
  N  N59  1  0.66606219  0.23479381  0.49031363  1
  N  N60  1  0.77707303  0.25719337  0.66289942  1
  N  N61  1  0.75270703  0.78378420  0.29022492  1
  N  N62  1  0.74434437  0.66400368  0.48266842  1
  N  N63  1  0.73391205  0.77474913  0.66405451  1
