# generated using pymatgen
data_H5PbC2SI4N3
_symmetry_space_group_name_H-M   'P 1'
_cell_length_a   11.98129892
_cell_length_b   11.94942299
_cell_length_c   9.94728661
_cell_angle_alpha   91.32232548
_cell_angle_beta   92.30741058
_cell_angle_gamma   92.11861236
_symmetry_Int_Tables_number   1
_chemical_formula_structural   H5PbC2SI4N3
_chemical_formula_sum   'H20 Pb4 C8 S4 I16 N12'
_cell_volume   1421.59130959
_cell_formula_units_Z   4
loop_
 _symmetry_equiv_pos_site_id
 _symmetry_equiv_pos_as_xyz
  1  'x, y, z'
loop_
 _atom_site_type_symbol
 _atom_site_label
 _atom_site_symmetry_multiplicity
 _atom_site_fract_x
 _atom_site_fract_y
 _atom_site_fract_z
 _atom_site_occupancy
  H  H0  1  0.20295745  0.22182778  0.75481033  1
  H  H1  1  0.33051860  0.28937283  0.72735449  1
  H  H2  1  0.31844360  0.14479717  0.72634415  1
  H  H3  1  0.20811037  0.39510887  0.53283403  1
  H  H4  1  0.26326872  0.17570457  0.22151700  1
  H  H5  1  0.29104786  0.82025819  0.74822118  1
  H  H6  1  0.23380655  0.68940367  0.77957129  1
  H  H7  1  0.15038888  0.80025608  0.74303541  1
  H  H8  1  0.39969891  0.68365382  0.55551813  1
  H  H9  1  0.17720460  0.73679868  0.24352356  1
  H  H10  1  0.77045699  0.32798189  0.21708712  1
  H  H11  1  0.70785639  0.19997626  0.24687148  1
  H  H12  1  0.84711835  0.21399049  0.25921676  1
  H  H13  1  0.58432388  0.27004785  0.44660334  1
  H  H14  1  0.81973291  0.30686502  0.75344857  1
  H  H15  1  0.66614440  0.70546737  0.27242141  1
  H  H16  1  0.79562191  0.76720119  0.24489601  1
  H  H17  1  0.68350262  0.85047943  0.27058482  1
  H  H18  1  0.81028778  0.60678283  0.46332869  1
  H  H19  1  0.72109027  0.80757703  0.77721380  1
  Pb  Pb20  1  0.98721210  0.98743945  0.00788447  1
  Pb  Pb21  1  0.02553789  0.48882038  0.00271794  1
  Pb  Pb22  1  0.50211456  0.99241004  0.99980225  1
  Pb  Pb23  1  0.50610192  0.49334091  0.99936947  1
  C  C24  1  0.25758039  0.21985972  0.55564363  1
  C  C25  1  0.22885310  0.31528940  0.48710415  1
  C  C26  1  0.22815532  0.74177324  0.57749667  1
  C  C27  1  0.32036547  0.70755694  0.50985243  1
  C  C28  1  0.76649402  0.27652261  0.42107113  1
  C  C29  1  0.66864328  0.27552748  0.49103046  1
  C  C30  1  0.74137919  0.77505888  0.44251892  1
  C  C31  1  0.78017669  0.68267568  0.50994529  1
  S  S32  1  0.28031673  0.11080131  0.44713047  1
  S  S33  1  0.11901486  0.76994279  0.46936039  1
  S  S34  1  0.88190529  0.29546004  0.52593884  1
  S  S35  1  0.70373038  0.87784763  0.55175056  1
  I  I36  1  0.24416408  0.95246389  0.10458466  1
  I  I37  1  0.26931785  0.61237802  0.01597624  1
  I  I38  1  0.73987231  0.06141839  0.89570956  1
  I  I39  1  0.76257252  0.41376458  0.98473231  1
  I  I40  1  0.05439326  0.23489407  0.89904848  1
  I  I41  1  0.95083942  0.73688492  0.11157627  1
  I  I42  1  0.41342015  0.24266973  0.03541238  1
  I  I43  1  0.60307289  0.74931975  0.96692440  1
  I  I44  1  0.01816194  0.93308804  0.68441785  1
  I  I45  1  0.95971218  0.05309518  0.31095894  1
  I  I46  1  0.02083715  0.53739251  0.69903649  1
  I  I47  1  0.99577458  0.45107478  0.32123037  1
  I  I48  1  0.42258169  0.97608758  0.68428984  1
  I  I49  1  0.58039116  0.01934174  0.31122679  1
  I  I50  1  0.44122300  0.45878178  0.68822252  1
  I  I51  1  0.56322230  0.53398946  0.31343950  1
  N  N52  1  0.27726906  0.21752759  0.69826765  1
  N  N53  1  0.22901855  0.30199635  0.35234154  1
  N  N54  1  0.25215130  0.20008413  0.32093738  1
  N  N55  1  0.22604549  0.76122223  0.72018505  1
  N  N56  1  0.30438347  0.70415161  0.37514968  1
  N  N57  1  0.20308774  0.73129012  0.34373687  1
  N  N58  1  0.77287955  0.25657961  0.27842237  1
  N  N59  1  0.68540972  0.28599820  0.62500299  1
  N  N60  1  0.79257087  0.29082163  0.65424910  1
  N  N61  1  0.72165429  0.77649970  0.30004850  1
  N  N62  1  0.77618465  0.69313366  0.64456506  1
  N  N63  1  0.74034836  0.79045143  0.67728860  1
