# generated using pymatgen
data_H7PbC3I4N3O
_symmetry_space_group_name_H-M   'P 1'
_cell_length_a   12.03087587
_cell_length_b   12.01440784
_cell_length_c   10.52640851
_cell_angle_alpha   92.21675994
_cell_angle_beta   92.83042243
_cell_angle_gamma   92.57033398
_symmetry_Int_Tables_number   1
_chemical_formula_structural   H7PbC3I4N3O
_chemical_formula_sum   'H28 Pb4 C12 I16 N12 O4'
_cell_volume   1516.86687563
_cell_formula_units_Z   4
loop_
 _symmetry_equiv_pos_site_id
 _symmetry_equiv_pos_as_xyz
  1  'x, y, z'
loop_
 _atom_site_type_symbol
 _atom_site_label
 _atom_site_symmetry_multiplicity
 _atom_site_fract_x
 _atom_site_fract_y
 _atom_site_fract_z
 _atom_site_occupancy
  H  H0  1  0.25735721  0.22374971  0.80744017  1
  H  H1  1  0.32392784  0.31955202  0.71862250  1
  H  H2  1  0.18463620  0.31064454  0.71769039  1
  H  H3  1  0.32293968  0.12214420  0.62875913  1
  H  H4  1  0.17489324  0.12148617  0.61986706  1
  H  H5  1  0.24863149  0.40965076  0.27868482  1
  H  H6  1  0.26384443  0.19890602  0.19514131  1
  H  H7  1  0.21952614  0.74376020  0.81185620  1
  H  H8  1  0.30209456  0.66787357  0.72108167  1
  H  H9  1  0.31700769  0.80812305  0.72436254  1
  H  H10  1  0.11315948  0.66983931  0.62290919  1
  H  H11  1  0.12253290  0.81902802  0.63363466  1
  H  H12  1  0.40366225  0.73387452  0.28536758  1
  H  H13  1  0.19392088  0.75659576  0.19980372  1
  H  H14  1  0.78326131  0.25267395  0.18901115  1
  H  H15  1  0.68540927  0.18937257  0.27645345  1
  H  H16  1  0.70088686  0.32933638  0.27958650  1
  H  H17  1  0.88074534  0.17860412  0.36725610  1
  H  H18  1  0.88865726  0.32801099  0.37829349  1
  H  H19  1  0.59700142  0.26155353  0.71338353  1
  H  H20  1  0.80665590  0.23865280  0.80066096  1
  H  H21  1  0.73984749  0.78377437  0.19236284  1
  H  H22  1  0.81434595  0.69667027  0.28006855  1
  H  H23  1  0.67563473  0.68610889  0.28034444  1
  H  H24  1  0.82414214  0.88358602  0.38109717  1
  H  H25  1  0.67579565  0.88362700  0.37248363  1
  H  H26  1  0.74936214  0.59202347  0.71776949  1
  H  H27  1  0.73302645  0.80232422  0.80430215  1
  Pb  Pb28  1  1.00009761  0.99427275  -0.00015426  1
  Pb  Pb29  1  0.99361474  0.49830008  -0.00036455  1
  Pb  Pb30  1  0.49386164  0.99772625  0.00258425  1
  Pb  Pb31  1  0.50179484  0.49260692  0.00186833  1
  C  C32  1  0.25130316  0.17639372  0.61460917  1
  C  C33  1  0.25377034  0.22938580  0.49057061  1
  C  C34  1  0.25232800  0.33729285  0.33767237  1
  C  C35  1  0.17174536  0.74388456  0.61908641  1
  C  C36  1  0.22447928  0.74527241  0.49562591  1
  C  C37  1  0.33164596  0.74027699  0.34358324  1
  C  C38  1  0.83096858  0.25325885  0.38189435  1
  C  C39  1  0.77783555  0.25137834  0.50512403  1
  C  C40  1  0.66964395  0.25557060  0.65619584  1
  C  C41  1  0.74733289  0.82912250  0.38586190  1
  C  C42  1  0.74480062  0.77495041  0.50913233  1
  C  C43  1  0.74592621  0.66528204  0.66035098  1
  I  I44  1  0.25074882  0.09441042  0.99857214  1
  I  I45  1  0.24387389  0.42933628  1.00664537  1
  I  I46  1  0.74351196  0.91746353  0.99895317  1
  I  I47  1  0.75130623  0.58570239  0.99005248  1
  I  I48  1  0.91569083  0.24187304  0.00249120  1
  I  I49  1  0.09234608  0.75146987  0.99804089  1
  I  I50  1  0.58366218  0.24732023  0.98332746  1
  I  I51  1  0.42803969  0.74288883  0.01652717  1
  I  I52  1  0.99729803  0.99230162  0.69562552  1
  I  I53  1  0.00548601  0.00302367  0.30448341  1
  I  I54  1  0.99929075  0.48507052  0.69479528  1
  I  I55  1  -0.00773351  0.51727602  0.30335445  1
  I  I56  1  0.46211936  0.96533872  0.69740455  1
  I  I57  1  0.53177524  0.03543760  0.30663121  1
  I  I58  1  0.46512690  0.48138117  0.69508806  1
  I  I59  1  0.54267822  0.51103547  0.30622304  1
  N  N60  1  0.25430870  0.26268683  0.72010923  1
  N  N61  1  0.24660751  0.33521860  0.46590974  1
  N  N62  1  0.26276005  0.23596843  0.28820147  1
  N  N63  1  0.25807746  0.74025662  0.72471660  1
  N  N64  1  0.32981529  0.73465814  0.47175810  1
  N  N65  1  0.23084521  0.75425797  0.29314456  1
  N  N66  1  0.74473073  0.25664385  0.27605037  1
  N  N67  1  0.67231865  0.26155013  0.52815262  1
  N  N68  1  0.77023590  0.24181237  0.70742874  1
  N  N69  1  0.74413406  0.74393924  0.27906240  1
  N  N70  1  0.75201618  0.66887500  0.53229929  1
  N  N71  1  0.73528693  0.76613205  0.71129203  1
  O  O72  1  0.26399343  0.16208032  0.38540149  1
  O  O73  1  0.15763160  0.75797625  0.38990407  1
  O  O74  1  0.84414832  0.23857942  0.61127343  1
  O  O75  1  0.73417209  0.84115641  0.61514515  1
