# generated using pymatgen
data_H7PbC3I4N3O
_symmetry_space_group_name_H-M   'P 1'
_cell_length_a   12.17412173
_cell_length_b   12.10036375
_cell_length_c   10.38816748
_cell_angle_alpha   85.31287457
_cell_angle_beta   84.97834561
_cell_angle_gamma   88.23114796
_symmetry_Int_Tables_number   1
_chemical_formula_structural   H7PbC3I4N3O
_chemical_formula_sum   'H28 Pb4 C12 I16 N12 O4'
_cell_volume   1518.88923382
_cell_formula_units_Z   4
loop_
 _symmetry_equiv_pos_site_id
 _symmetry_equiv_pos_as_xyz
  1  'x, y, z'
loop_
 _atom_site_type_symbol
 _atom_site_label
 _atom_site_symmetry_multiplicity
 _atom_site_fract_x
 _atom_site_fract_y
 _atom_site_fract_z
 _atom_site_occupancy
  H  H0  1  0.28014129  0.28846403  0.81082413  1
  H  H1  1  0.36527777  0.33888501  0.68582308  1
  H  H2  1  0.34944250  0.19878706  0.71634990  1
  H  H3  1  0.17335003  0.36673974  0.63663260  1
  H  H4  1  0.15133566  0.22154009  0.67847281  1
  H  H5  1  0.25614756  0.07356117  0.48196195  1
  H  H6  1  0.28192727  0.33926618  0.20176658  1
  H  H7  1  0.28466231  0.72421069  0.81239596  1
  H  H8  1  0.33476587  0.63530104  0.70372968  1
  H  H9  1  0.19611097  0.66149574  0.72547697  1
  H  H10  1  0.37155341  0.82281123  0.61491382  1
  H  H11  1  0.22953733  0.86066319  0.65143210  1
  H  H12  1  0.07502544  0.76566685  0.48222840  1
  H  H13  1  0.33205235  0.70769445  0.20603234  1
  H  H14  1  0.70704230  0.20773225  0.19144178  1
  H  H15  1  0.65322385  0.12365011  0.31619064  1
  H  H16  1  0.79231002  0.13434996  0.28679380  1
  H  H17  1  0.63167899  0.31718396  0.36756306  1
  H  H18  1  0.77438248  0.33790402  0.31966859  1
  H  H19  1  0.92671261  0.23378805  0.51287919  1
  H  H20  1  0.66682366  0.21769192  0.80079781  1
  H  H21  1  0.78203847  0.72622779  0.18601287  1
  H  H22  1  0.86706419  0.66592584  0.29177459  1
  H  H23  1  0.84625468  0.80803755  0.27877701  1
  H  H24  1  0.68252877  0.63274198  0.38145814  1
  H  H25  1  0.64591536  0.77635162  0.34845684  1
  H  H26  1  0.74413054  0.92844691  0.51930118  1
  H  H27  1  0.79883850  0.66818259  0.79206169  1
  Pb  Pb28  1  -0.00285700  1.00377462  0.97952465  1
  Pb  Pb29  1  0.00319528  0.49324311  0.01375624  1
  Pb  Pb30  1  0.48344716  0.99837789  0.01711480  1
  Pb  Pb31  1  0.51640151  0.50477812  0.98346315  1
  C  C32  1  0.21149702  0.28291519  0.63426459  1
  C  C33  1  0.24212603  0.25618004  0.49872254  1
  C  C34  1  0.25973764  0.15831625  0.43980514  1
  C  C35  1  0.28669466  0.79318968  0.62060395  1
  C  C36  1  0.25757005  0.76189873  0.49269739  1
  C  C37  1  0.15833314  0.75171351  0.44020331  1
  C  C38  1  0.71440787  0.27765566  0.36699970  1
  C  C39  1  0.74430252  0.24935362  0.50149389  1
  C  C40  1  0.84292419  0.23322812  0.55735622  1
  C  C41  1  0.71209496  0.71792967  0.37815683  1
  C  C42  1  0.74282766  0.74531756  0.50711393  1
  C  C43  1  0.75564874  0.84436730  0.56061796  1
  I  I44  1  0.23074999  0.09666254  1.00421068  1
  I  I45  1  0.26297164  0.43358901  0.00473283  1
  I  I46  1  0.73545521  0.93316685  -0.00004321  1
  I  I47  1  0.75801349  0.59259421  0.99591215  1
  I  I48  1  0.90430417  0.25926143  0.01146536  1
  I  I49  1  0.06899650  0.75194752  1.00230561  1
  I  I50  1  0.57014431  0.24694061  0.99618710  1
  I  I51  1  0.41032618  0.74940343  0.99871801  1
  I  I52  1  0.04377642  0.00760698  0.67309949  1
  I  I53  1  0.94270043  0.98471841  0.30547054  1
  I  I54  1  0.03800271  0.54168395  0.69885757  1
  I  I55  1  0.96616750  0.48444079  0.32490041  1
  I  I56  1  0.47999781  0.02776268  0.71074009  1
  I  I57  1  0.50807092  0.98210922  0.33353748  1
  I  I58  1  0.49248943  0.50542735  0.66367791  1
  I  I59  1  0.49680156  0.49320971  0.28193473  1
  N  N60  1  0.30793042  0.27663105  0.71502206  1
  N  N61  1  0.28336759  0.18397772  0.31049687  1
  N  N62  1  0.28123917  0.28884514  0.29240752  1
  N  N63  1  0.27423209  0.69779618  0.72126743  1
  N  N64  1  0.18036384  0.72011302  0.31780934  1
  N  N65  1  0.28435201  0.70923070  0.29820291  1
  N  N66  1  0.71709851  0.17993221  0.28739288  1
  N  N67  1  0.81997121  0.21388413  0.68771084  1
  N  N68  1  0.71586228  0.21673651  0.70935737  1
  N  N69  1  0.80818646  0.73081507  0.27813830  1
  N  N70  1  0.78847417  0.82099027  0.68193779  1
  N  N71  1  0.79756941  0.71631262  0.69991885  1
  O  O72  1  0.25432634  0.34158470  0.40574304  1
  O  O73  1  0.33995970  0.73656049  0.40296115  1
  O  O74  1  0.66128887  0.24016052  0.59753096  1
  O  O75  1  0.76718297  0.66136615  0.59528429  1
