# generated using pymatgen
data_H19PbC16I4N3
_symmetry_space_group_name_H-M   'P 1'
_cell_length_a   12.18652790
_cell_length_b   12.14131916
_cell_length_c   19.22218422
_cell_angle_alpha   90.70103250
_cell_angle_beta   91.94470387
_cell_angle_gamma   89.53746899
_symmetry_Int_Tables_number   1
_chemical_formula_structural   H19PbC16I4N3
_chemical_formula_sum   'H76 Pb4 C64 I16 N12'
_cell_volume   2842.19016925
_cell_formula_units_Z   4
loop_
 _symmetry_equiv_pos_site_id
 _symmetry_equiv_pos_as_xyz
  1  'x, y, z'
loop_
 _atom_site_type_symbol
 _atom_site_label
 _atom_site_symmetry_multiplicity
 _atom_site_fract_x
 _atom_site_fract_y
 _atom_site_fract_z
 _atom_site_occupancy
  H  H0  1  0.17832706  0.15350074  0.82275667  1
  H  H1  1  0.24650982  0.18873575  0.89628015  1
  H  H2  1  0.18576917  0.28628343  0.84753693  1
  H  H3  1  0.38608890  0.15554083  0.82074099  1
  H  H4  1  0.37289523  0.30233693  0.82532691  1
  H  H5  1  0.30734029  0.05074560  0.71573923  1
  H  H6  1  0.27046124  0.05483884  0.58893307  1
  H  H7  1  0.24702443  0.06702072  0.46513414  1
  H  H8  1  0.21412185  0.08313791  0.30779438  1
  H  H9  1  0.16742913  0.13045071  0.18612269  1
  H  H10  1  0.13510347  0.26853061  0.16421824  1
  H  H11  1  0.28752058  0.20065582  0.10331013  1
  H  H12  1  0.36053519  0.17023220  0.17541051  1
  H  H13  1  0.33328120  0.30272217  0.15649950  1
  H  H14  1  0.19380993  0.42154007  0.24153568  1
  H  H15  1  0.21401366  0.49051708  0.36374118  1
  H  H16  1  0.24285251  0.41273429  0.49881853  1
  H  H17  1  0.28286280  0.41154984  0.59745470  1
  H  H18  1  0.31846124  0.40542408  0.72274753  1
  H  H19  1  0.14928060  0.82594470  0.82312665  1
  H  H20  1  0.19699941  0.76363735  0.89463062  1
  H  H21  1  0.28515927  0.82689544  0.84189282  1
  H  H22  1  0.15890356  0.61974654  0.81707507  1
  H  H23  1  0.30475212  0.63438825  0.82270066  1
  H  H24  1  0.05154885  0.69729745  0.71161403  1
  H  H25  1  0.05464379  0.73105026  0.58552796  1
  H  H26  1  0.06651990  0.75087471  0.46219764  1
  H  H27  1  0.08132045  0.78691476  0.30662215  1
  H  H28  1  0.12678657  0.84328939  0.18864942  1
  H  H29  1  0.26478730  0.86543811  0.16644302  1
  H  H30  1  0.17931612  0.71646880  0.10341452  1
  H  H31  1  0.16010632  0.64442267  0.17546519  1
  H  H32  1  0.28885069  0.67113551  0.14916103  1
  H  H33  1  0.41766060  0.81081544  0.24449108  1
  H  H34  1  0.48757199  0.78654994  0.36675119  1
  H  H35  1  0.41100321  0.75532566  0.50045640  1
  H  H36  1  0.41032302  0.71119917  0.59743352  1
  H  H37  1  0.40513980  0.68139296  0.72232513  1
  H  H38  1  0.83724922  0.35038246  0.17523667  1
  H  H39  1  0.78414305  0.28581799  0.10569269  1
  H  H40  1  0.69933647  0.34108201  0.16507415  1
  H  H41  1  0.85293815  0.14733761  0.17806785  1
  H  H42  1  0.70705655  0.14222182  0.17509060  1
  H  H43  1  0.95461132  0.20517103  0.28894988  1
  H  H44  1  0.94932584  0.22760055  0.41608133  1
  H  H45  1  0.93378816  0.25162417  0.53982211  1
  H  H46  1  0.91407253  0.29120716  0.69582868  1
  H  H47  1  0.86620451  0.34564753  0.81306928  1
  H  H48  1  0.72815141  0.37338943  0.83414813  1
  H  H49  1  0.81503427  0.22136653  0.89638949  1
  H  H50  1  0.82366054  0.14698401  0.82256623  1
  H  H51  1  0.69953171  0.18369671  0.85441124  1
  H  H52  1  0.57566680  0.31436231  0.75453417  1
  H  H53  1  0.50961669  0.28324220  0.63182037  1
  H  H54  1  0.58991941  0.24663897  0.49923687  1
  H  H55  1  0.59395703  0.21116747  0.40139645  1
  H  H56  1  0.60123693  0.19037212  0.27563512  1
  H  H57  1  0.65526875  0.84603868  0.17098323  1
  H  H58  1  0.72170391  0.79362418  0.10337763  1
  H  H59  1  0.66736558  0.70838652  0.15990197  1
  H  H60  1  0.85842045  0.85799363  0.18118826  1
  H  H61  1  0.86275115  0.71140445  0.17818780  1
  H  H62  1  0.79873014  0.95724297  0.28918635  1
  H  H63  1  0.77341894  0.94965409  0.41526175  1
  H  H64  1  0.74907003  0.93386867  0.53725147  1
  H  H65  1  0.71017709  0.91549749  0.69208484  1
  H  H66  1  0.65742833  0.86821500  0.81034549  1
  H  H67  1  0.62986616  0.72976009  0.83172807  1
  H  H68  1  0.78392409  0.80115484  0.89702486  1
  H  H69  1  0.85203768  0.82912567  0.82536281  1
  H  H70  1  0.82921324  0.69724083  0.84542077  1
  H  H71  1  0.68536501  0.57664168  0.75512200  1
  H  H72  1  0.71359005  0.50920055  0.63443135  1
  H  H73  1  0.75150189  0.58871795  0.50136288  1
  H  H74  1  0.78672372  0.59311572  0.40289850  1
  H  H75  1  0.81103377  0.60258956  0.27789429  1
  Pb  Pb76  1  -0.00063918  0.00546773  0.98514298  1
  Pb  Pb77  1  0.99363374  0.50507053  0.00038250  1
  Pb  Pb78  1  0.49621095  0.98897968  0.99802156  1
  Pb  Pb79  1  0.50185097  0.49762258  0.00344160  1
  C  C80  1  0.33406910  0.22619610  0.80572837  1
  C  C81  1  0.31206426  0.22810378  0.72849351  1
  C  C82  1  0.29955356  0.12988734  0.68954941  1
  C  C83  1  0.27965663  0.13226018  0.61787164  1
  C  C84  1  0.27181244  0.23316654  0.58241606  1
  C  C85  1  0.25196435  0.23737202  0.50723513  1
  C  C86  1  0.24255178  0.15512618  0.45628210  1
  C  C87  1  0.22746333  0.20776309  0.39025048  1
  C  C88  1  0.21566968  0.17108295  0.32051961  1
  C  C89  1  0.20588871  0.24935010  0.26794674  1
  C  C90  1  0.19456397  0.21584943  0.19276660  1
  C  C91  1  0.20545746  0.36345874  0.28394653  1
  C  C92  1  0.21556545  0.40247832  0.35180581  1
  C  C93  1  0.22743898  0.32380263  0.40395417  1
  C  C94  1  0.28565060  0.33103160  0.62200180  1
  C  C95  1  0.30531711  0.32858444  0.69366002  1
  C  C96  1  0.22766822  0.67208211  0.80319578  1
  C  C97  1  0.22844889  0.68978583  0.72611738  1
  C  C98  1  0.13026474  0.70250350  0.68635531  1
  C  C99  1  0.13205048  0.72046913  0.61499571  1
  C  C100  1  0.23246769  0.72538076  0.58079348  1
  C  C101  1  0.23646293  0.74514741  0.50616989  1
  C  C102  1  0.15425190  0.75521749  0.45454671  1
  C  C103  1  0.20626400  0.77144760  0.38975704  1
  C  C104  1  0.16910641  0.78520486  0.32021241  1
  C  C105  1  0.24641429  0.79721381  0.26883785  1
  C  C106  1  0.21052075  0.81028280  0.19412698  1
  C  C107  1  0.36030317  0.79771916  0.28588421  1
  C  C108  1  0.39972966  0.78527483  0.35385834  1
  C  C109  1  0.32202939  0.77142531  0.40475855  1
  C  C110  1  0.33022606  0.71017291  0.62106931  1
  C  C111  1  0.32831976  0.69314039  0.69239190  1
  C  C112  1  0.77822962  0.18938100  0.19503754  1
  C  C113  1  0.77762400  0.20066147  0.27283051  1
  C  C114  1  0.87524605  0.20880129  0.31366589  1
  C  C115  1  0.87226871  0.22091659  0.38578618  1
  C  C116  1  0.77125436  0.22489695  0.41953020  1
  C  C117  1  0.76509385  0.24268416  0.49453187  1
  C  C118  1  0.84581478  0.25512842  0.54690922  1
  C  C119  1  0.79186305  0.27149962  0.61135169  1
  C  C120  1  0.82678000  0.28766754  0.68128258  1
  C  C121  1  0.74797647  0.30033809  0.73193701  1
  C  C122  1  0.78205496  0.31523989  0.80698473  1
  C  C123  1  0.63444072  0.29915626  0.71383751  1
  C  C124  1  0.59712426  0.28339215  0.64551486  1
  C  C125  1  0.67647915  0.26896224  0.59537176  1
  C  C126  1  0.67431860  0.21231882  0.37815710  1
  C  C127  1  0.67743520  0.20073707  0.30632670  1
  C  C128  1  0.81602756  0.78317646  0.19670511  1
  C  C129  1  0.80254932  0.78007136  0.27393283  1
  C  C130  1  0.79400779  0.87716220  0.31407721  1
  C  C131  1  0.78019646  0.87285408  0.38562486  1
  C  C132  1  0.77476706  0.77091723  0.41977522  1
  C  C133  1  0.75622934  0.76443282  0.49424559  1
  C  C134  1  0.74441316  0.84567084  0.54522683  1
  C  C135  1  0.72715828  0.79201999  0.60987985  1
  C  C136  1  0.71189201  0.82776464  0.67892725  1
  C  C137  1  0.69890339  0.74930856  0.73041597  1
  C  C138  1  0.68703461  0.78322649  0.80509343  1
  C  C139  1  0.69887506  0.63532905  0.71384972  1
  C  C140  1  0.71349874  0.59717445  0.64651691  1
  C  C141  1  0.72844455  0.67622966  0.59552110  1
  C  C142  1  0.78703032  0.67425655  0.37921505  1
  C  C143  1  0.80049068  0.67869875  0.30779709  1
  I  I144  1  0.24840257  0.07101385  0.00163143  1
  I  I145  1  0.24296207  0.41752791  0.00182749  1
  I  I146  1  0.74994258  0.93418726  0.99532279  1
  I  I147  1  0.74462233  0.59304896  0.00678612  1
  I  I148  1  0.92019206  0.25581970  0.00258591  1
  I  I149  1  0.06785802  0.75559486  0.99621648  1
  I  I150  1  0.56616856  0.23624524  0.97230458  1
  I  I151  1  0.41411295  0.74128282  0.02799934  1
  I  I152  1  0.99902065  0.00361822  0.80505712  1
  I  I153  1  0.99910102  0.00512154  0.14363201  1
  I  I154  1  0.96616858  0.53709634  0.83558699  1
  I  I155  1  0.99036075  0.50586766  0.17207090  1
  I  I156  1  0.44428355  0.94296109  0.83571679  1
  I  I157  1  0.50877576  0.00940940  0.16987450  1
  I  I158  1  0.49578224  0.51057853  0.84070491  1
  I  I159  1  0.52825379  0.46531698  0.17629245  1
  N  N160  1  0.22926571  0.21344045  0.84494427  1
  N  N161  1  0.30102393  0.22420948  0.15531371  1
  N  N162  1  0.24191860  0.33848624  0.47442203  1
  N  N163  1  0.21395496  0.77863552  0.84287844  1
  N  N164  1  0.21065104  0.70275441  0.15400467  1
  N  N165  1  0.33710012  0.75556484  0.47494348  1
  N  N166  1  0.77366367  0.29859173  0.15862502  1
  N  N167  1  0.77882547  0.20881387  0.84654310  1
  N  N168  1  0.66340228  0.25162893  0.52498568  1
  N  N169  1  0.70773359  0.78232944  0.15592888  1
  N  N170  1  0.79503026  0.77641907  0.84551940  1
  N  N171  1  0.74595159  0.66267478  0.52578933  1
