# generated using pymatgen
data_H20PbC14S(I2N)2
_symmetry_space_group_name_H-M   'P 1'
_cell_length_a   12.40697415
_cell_length_b   12.41516515
_cell_length_c   18.71176174
_cell_angle_alpha   89.20535807
_cell_angle_beta   89.30734425
_cell_angle_gamma   89.04887320
_symmetry_Int_Tables_number   1
_chemical_formula_structural   H20PbC14S(I2N)2
_chemical_formula_sum   'H80 Pb4 C56 S4 I16 N8'
_cell_volume   2881.38235312
_cell_formula_units_Z   4
loop_
 _symmetry_equiv_pos_site_id
 _symmetry_equiv_pos_as_xyz
  1  'x, y, z'
loop_
 _atom_site_type_symbol
 _atom_site_label
 _atom_site_symmetry_multiplicity
 _atom_site_fract_x
 _atom_site_fract_y
 _atom_site_fract_z
 _atom_site_occupancy
  H  H0  1  0.20090420  0.35147061  0.87404945  1
  H  H1  1  0.15886797  0.22641623  0.88300219  1
  H  H2  1  0.28626766  0.25450947  0.90325862  1
  H  H3  1  0.33239812  0.29635069  0.78103289  1
  H  H4  1  0.27692148  0.16466623  0.78781374  1
  H  H5  1  0.09463282  0.24180940  0.75556555  1
  H  H6  1  0.14923683  0.37222480  0.74862818  1
  H  H7  1  0.25579780  0.42729528  0.64354481  1
  H  H8  1  0.30791881  0.39284475  0.51762433  1
  H  H9  1  0.23264810  0.35074613  0.38699329  1
  H  H10  1  0.29414250  0.36510862  0.25266995  1
  H  H11  1  0.38736012  0.26916825  0.21910136  1
  H  H12  1  0.14148957  0.23758870  0.22981396  1
  H  H13  1  0.23590768  0.14063705  0.19669581  1
  H  H14  1  0.19291135  0.35946657  0.13582747  1
  H  H15  1  0.15530046  0.24490955  0.10057488  1
  H  H16  1  0.28692411  0.27212316  0.10332549  1
  H  H17  1  0.40443705  0.07434089  0.29547102  1
  H  H18  1  0.19512730  0.06717818  0.53990516  1
  H  H19  1  0.14601813  0.10126740  0.66630400  1
  H  H20  1  0.34986596  0.80058831  0.87508414  1
  H  H21  1  0.22343893  0.84656081  0.87905345  1
  H  H22  1  0.25267121  0.71848681  0.90377476  1
  H  H23  1  0.29974293  0.66960601  0.78357603  1
  H  H24  1  0.16699606  0.72691433  0.78699169  1
  H  H25  1  0.24297658  0.90795971  0.75277697  1
  H  H26  1  0.37390171  0.84977683  0.74695511  1
  H  H27  1  0.42872126  0.74103583  0.64367634  1
  H  H28  1  0.39382284  0.68891253  0.51873267  1
  H  H29  1  0.34959722  0.76646405  0.38673021  1
  H  H30  1  0.36537624  0.70183353  0.25420109  1
  H  H31  1  0.26994316  0.61086836  0.22224836  1
  H  H32  1  0.23692835  0.85728041  0.22801107  1
  H  H33  1  0.14098985  0.76548741  0.19624315  1
  H  H34  1  0.36147230  0.80077326  0.13616467  1
  H  H35  1  0.24775564  0.84294295  0.09927078  1
  H  H36  1  0.27428823  0.71028058  0.10465342  1
  H  H37  1  0.07622940  0.59719540  0.29911583  1
  H  H38  1  0.06780811  0.81159797  0.53892973  1
  H  H39  1  0.10260522  0.86186452  0.66384027  1
  H  H40  1  0.64759246  0.29470538  0.12525317  1
  H  H41  1  0.77263061  0.33692067  0.11689220  1
  H  H42  1  0.74483022  0.20896626  0.09745173  1
  H  H43  1  0.70213225  0.16589048  0.22025085  1
  H  H44  1  0.83362032  0.22118058  0.21356120  1
  H  H45  1  0.75594091  0.40443532  0.24249810  1
  H  H46  1  0.62534943  0.34970446  0.24996078  1
  H  H47  1  0.57274092  0.23970117  0.35593259  1
  H  H48  1  0.60845926  0.19049411  0.48192384  1
  H  H49  1  0.64253232  0.25580116  0.61212692  1
  H  H50  1  0.63603256  0.20402521  0.74719687  1
  H  H51  1  0.73350857  0.11061346  0.77883670  1
  H  H52  1  0.76272151  0.35681332  0.77177977  1
  H  H53  1  0.85991630  0.26193682  0.80461623  1
  H  H54  1  0.64055689  0.30322460  0.86454760  1
  H  H55  1  0.75500754  0.34036483  0.90051381  1
  H  H56  1  0.72814803  0.20900853  0.89742195  1
  H  H57  1  0.93702003  0.12227929  0.70573007  1
  H  H58  1  0.92900262  0.31748427  0.46051439  1
  H  H59  1  0.89408098  0.36348582  0.33348357  1
  H  H60  1  0.70233944  0.64933150  0.12467232  1
  H  H61  1  0.65748179  0.77622462  0.12074852  1
  H  H62  1  0.78561255  0.74583380  0.09621356  1
  H  H63  1  0.83289316  0.69874355  0.21695841  1
  H  H64  1  0.77535741  0.83132020  0.21346169  1
  H  H65  1  0.59389252  0.75503954  0.24596178  1
  H  H66  1  0.65188106  0.62402308  0.25173430  1
  H  H67  1  0.75925352  0.56810180  0.35548511  1
  H  H68  1  0.81036491  0.60149635  0.48063269  1
  H  H69  1  0.73337274  0.64502362  0.61440243  1
  H  H70  1  0.79881365  0.63239507  0.74707646  1
  H  H71  1  0.89056254  0.72838159  0.77731975  1
  H  H72  1  0.64397973  0.76213122  0.77252310  1
  H  H73  1  0.73692171  0.85786509  0.80329333  1
  H  H74  1  0.70430363  0.63839527  0.86528823  1
  H  H75  1  0.65895894  0.75201783  0.90069681  1
  H  H76  1  0.79208199  0.72821123  0.89621096  1
  H  H77  1  0.90044103  0.92105840  0.69973010  1
  H  H78  1  0.68715862  0.92720469  0.46163767  1
  H  H79  1  0.63799965  0.89413238  0.33580911  1
  Pb  Pb80  1  -0.00027367  0.99434924  0.00566142  1
  Pb  Pb81  1  0.00338234  0.50343689  0.00205513  1
  Pb  Pb82  1  0.50881004  1.00103837  0.99962356  1
  Pb  Pb83  1  0.49523170  0.49348439  0.99229943  1
  C  C84  1  0.25831573  0.25117389  0.79123853  1
  C  C85  1  0.16797036  0.28626450  0.74087744  1
  C  C86  1  0.19808145  0.26627429  0.66391303  1
  C  C87  1  0.24274343  0.34793996  0.62097105  1
  C  C88  1  0.27137046  0.32906000  0.54992824  1
  C  C89  1  0.25598158  0.22737847  0.51964879  1
  C  C90  1  0.28771164  0.20746983  0.44511344  1
  C  C91  1  0.27435538  0.27271380  0.38525365  1
  C  C92  1  0.31764512  0.22693383  0.32140356  1
  C  C93  1  0.31000610  0.27795066  0.24809248  1
  C  C94  1  0.22117817  0.22701442  0.20460810  1
  C  C95  1  0.36467090  0.12688964  0.33407855  1
  C  C96  1  0.21079545  0.14567393  0.56281387  1
  C  C97  1  0.18257911  0.16505748  0.63378240  1
  C  C98  1  0.25307571  0.74457074  0.79126714  1
  C  C99  1  0.28796422  0.83359692  0.73923978  1
  C  C100  1  0.26785901  0.80429602  0.66274804  1
  C  C101  1  0.34928217  0.75640283  0.62074640  1
  C  C102  1  0.33009890  0.72763303  0.55035299  1
  C  C103  1  0.22820462  0.74581846  0.51983054  1
  C  C104  1  0.20788772  0.71352823  0.44614055  1
  C  C105  1  0.27252793  0.72547083  0.38592520  1
  C  C106  1  0.22722412  0.68214761  0.32311011  1
  C  C107  1  0.27829632  0.68801436  0.24982262  1
  C  C108  1  0.22731501  0.77773212  0.20428930  1
  C  C109  1  0.12798145  0.63686729  0.33686188  1
  C  C110  1  0.14677946  0.79452712  0.56194834  1
  C  C111  1  0.16656769  0.82328341  0.63219485  1
  C  C112  1  0.74713526  0.23984392  0.20939981  1
  C  C113  1  0.71140343  0.33159719  0.25828848  1
  C  C114  1  0.73132675  0.30446219  0.33575481  1
  C  C115  1  0.65134070  0.25672058  0.37860989  1
  C  C116  1  0.67091018  0.22980339  0.44990171  1
  C  C117  1  0.77139142  0.25055200  0.48057217  1
  C  C118  1  0.79300077  0.22113229  0.55515425  1
  C  C119  1  0.72513034  0.22465238  0.61437409  1
  C  C120  1  0.77524269  0.18786565  0.67844942  1
  C  C121  1  0.72341781  0.18925334  0.75157780  1
  C  C122  1  0.77352737  0.27674144  0.79646906  1
  C  C123  1  0.88126054  0.15637319  0.66668684  1
  C  C124  1  0.85121673  0.29902222  0.43738397  1
  C  C125  1  0.83146693  0.32527096  0.36614250  1
  C  C126  1  0.75792941  0.74528742  0.20882831  1
  C  C127  1  0.66799130  0.70980871  0.25993906  1
  C  C128  1  0.69588062  0.72903535  0.33675365  1
  C  C129  1  0.74331396  0.64715892  0.37864474  1
  C  C130  1  0.77121070  0.66534660  0.44928332  1
  C  C131  1  0.75231707  0.76666843  0.48018149  1
  C  C132  1  0.78433184  0.78666857  0.55391091  1
  C  C133  1  0.77354249  0.72246712  0.61446662  1
  C  C134  1  0.81717231  0.76911634  0.67674489  1
  C  C135  1  0.81284803  0.71946659  0.75043085  1
  C  C136  1  0.72394282  0.77159749  0.79582691  1
  C  C137  1  0.86101004  0.86866187  0.66231241  1
  C  C138  1  0.70411644  0.84865403  0.43811221  1
  C  C139  1  0.67633351  0.82998222  0.36755363  1
  S  S140  1  0.35503943  0.08919709  0.42218729  1
  S  S141  1  0.09059308  0.64791810  0.42477401  1
  S  S142  1  0.91929750  0.17309078  0.57924371  1
  S  S143  1  0.84842323  0.90489369  0.57426259  1
  I  I144  1  0.25154646  0.98601163  0.00373194  1
  I  I145  1  0.24666571  0.56817769  0.00099027  1
  I  I146  1  0.75062858  0.07121957  0.99699456  1
  I  I147  1  0.74773284  0.48047688  0.00407245  1
  I  I148  1  0.01863841  0.25120364  0.99596011  1
  I  I149  1  0.92654055  0.75325309  0.99805658  1
  I  I150  1  0.43516662  0.24992875  0.00679985  1
  I  I151  1  0.51462702  0.74908926  0.99489826  1
  I  I152  1  0.03715734  -0.00053383  0.82921993  1
  I  I153  1  0.99374015  -0.00038014  0.17084735  1
  I  I154  1  0.00602687  0.50677971  0.83582381  1
  I  I155  1  0.99606745  0.47333538  0.17583152  1
  I  I156  1  0.50171417  0.00243566  0.83407926  1
  I  I157  1  0.51011393  0.95739629  0.17342543  1
  I  I158  1  0.52781322  0.49276259  0.81910627  1
  I  I159  1  0.49593898  0.49883994  0.15910681  1
  N  N160  1  0.22480192  0.27196597  0.86741593  1
  N  N161  1  0.21451153  0.27877367  0.13181311  1
  N  N162  1  0.27070348  0.77938118  0.86686693  1
  N  N163  1  0.28043154  0.78215431  0.13194745  1
  N  N164  1  0.72707426  0.27140333  0.13279834  1
  N  N165  1  0.72129968  0.28174396  0.86901365  1
  N  N166  1  0.72406122  0.72818112  0.13299467  1
  N  N167  1  0.72031474  0.71974097  0.86856313  1
