# generated using pymatgen
data_H19PbC13I4N3
_symmetry_space_group_name_H-M   'P 1'
_cell_length_a   12.28777407
_cell_length_b   12.24763903
_cell_length_c   17.71760637
_cell_angle_alpha   90.07048555
_cell_angle_beta   89.85489338
_cell_angle_gamma   89.76435337
_symmetry_Int_Tables_number   1
_chemical_formula_structural   H19PbC13I4N3
_chemical_formula_sum   'H76 Pb4 C52 I16 N12'
_cell_volume   2666.39965420
_cell_formula_units_Z   4
loop_
 _symmetry_equiv_pos_site_id
 _symmetry_equiv_pos_as_xyz
  1  'x, y, z'
loop_
 _atom_site_type_symbol
 _atom_site_label
 _atom_site_symmetry_multiplicity
 _atom_site_fract_x
 _atom_site_fract_y
 _atom_site_fract_z
 _atom_site_occupancy
  H  H0  1  0.32425457  0.25279013  0.88526951  1
  H  H1  1  0.19004249  0.24195044  0.89770720  1
  H  H2  1  0.26247919  0.13975311  0.85877691  1
  H  H3  1  0.15426991  0.24224826  0.76417232  1
  H  H4  1  0.23489774  0.35845639  0.78821771  1
  H  H5  1  0.32503184  0.13909231  0.72929370  1
  H  H6  1  0.40385974  0.25302899  0.75411429  1
  H  H7  1  0.37395901  0.44367446  0.65773466  1
  H  H8  1  0.33390512  0.44721948  0.51842021  1
  H  H9  1  0.20864249  0.43465772  0.42489635  1
  H  H10  1  0.16668392  0.40718242  0.29039201  1
  H  H11  1  0.14620462  0.13885950  0.19634933  1
  H  H12  1  0.11674019  0.28074462  0.19018931  1
  H  H13  1  0.31201541  0.31237467  0.16729186  1
  H  H14  1  0.33566764  0.17689297  0.16880309  1
  H  H15  1  0.25383383  0.23207330  0.10313103  1
  H  H16  1  0.23924069  0.06395874  0.31189577  1
  H  H17  1  0.28468447  0.09106510  0.44626040  1
  H  H18  1  0.24934519  0.12808214  0.58599012  1
  H  H19  1  0.24397339  0.67715887  0.88419545  1
  H  H20  1  0.23483640  0.81246729  0.89555663  1
  H  H21  1  0.13349139  0.74156050  0.85543448  1
  H  H22  1  0.24066474  0.84543354  0.76119284  1
  H  H23  1  0.35514246  0.76520756  0.78879299  1
  H  H24  1  0.13999757  0.67179215  0.72803167  1
  H  H25  1  0.25579983  0.59474315  0.75381604  1
  H  H26  1  0.44795687  0.63302874  0.65756456  1
  H  H27  1  0.45035238  0.67325733  0.51799934  1
  H  H28  1  0.43293097  0.79412295  0.42304385  1
  H  H29  1  0.40348745  0.83663048  0.28880067  1
  H  H30  1  0.13642811  0.85977522  0.19714897  1
  H  H31  1  0.27915922  0.87976117  0.18786224  1
  H  H32  1  0.29705974  0.67897249  0.16694541  1
  H  H33  1  0.16140427  0.66784151  0.16968742  1
  H  H34  1  0.21953086  0.74475384  0.10302764  1
  H  H35  1  0.06320700  0.76053481  0.31305190  1
  H  H36  1  0.09215740  0.71410630  0.44664837  1
  H  H37  1  0.12817030  0.74546025  0.58552462  1
  H  H38  1  0.75112729  0.17742569  0.11645882  1
  H  H39  1  0.75986587  0.31207799  0.10356117  1
  H  H40  1  0.86245602  0.24179898  0.14295883  1
  H  H41  1  0.75891786  0.34795181  0.23769084  1
  H  H42  1  0.64288691  0.26846458  0.21248050  1
  H  H43  1  0.85924548  0.17487703  0.27210315  1
  H  H44  1  0.74471981  0.09754903  0.24651316  1
  H  H45  1  0.55576969  0.12401797  0.34410742  1
  H  H46  1  0.55326305  0.16443224  0.48400978  1
  H  H47  1  0.56339873  0.29406119  0.57684492  1
  H  H48  1  0.59178988  0.33835119  0.71086017  1
  H  H49  1  0.86021436  0.35919536  0.80326017  1
  H  H50  1  0.71915133  0.38959537  0.81051488  1
  H  H51  1  0.68662248  0.19418524  0.83387521  1
  H  H52  1  0.82067141  0.16880160  0.83093033  1
  H  H53  1  0.76726686  0.25299974  0.89722197  1
  H  H54  1  0.93343930  0.26451932  0.68796441  1
  H  H55  1  0.90570620  0.21728285  0.55357430  1
  H  H56  1  0.86894495  0.25425818  0.41398574  1
  H  H57  1  0.82315295  0.75901962  0.11627627  1
  H  H58  1  0.68831569  0.76544931  0.10334446  1
  H  H59  1  0.75566602  0.86911097  0.14308306  1
  H  H60  1  0.65370727  0.76352891  0.23841797  1
  H  H61  1  0.73342805  0.64787904  0.21147811  1
  H  H62  1  0.82751289  0.86397464  0.27118773  1
  H  H63  1  0.90335507  0.74745741  0.24439452  1
  H  H64  1  0.88259801  0.56026546  0.34227871  1
  H  H65  1  0.83992022  0.55613328  0.48197368  1
  H  H66  1  0.70722345  0.56443488  0.57457693  1
  H  H67  1  0.66503712  0.59187195  0.70943325  1
  H  H68  1  0.63364581  0.85860632  0.80164846  1
  H  H69  1  0.61757062  0.71490754  0.81060670  1
  H  H70  1  0.81762173  0.70281156  0.83281120  1
  H  H71  1  0.82388008  0.83968400  0.83073348  1
  H  H72  1  0.74691273  0.77720578  0.89640354  1
  H  H73  1  0.73487302  0.93484016  0.68799415  1
  H  H74  1  0.78129947  0.90784913  0.55328279  1
  H  H75  1  0.74357454  0.87167497  0.41319935  1
  Pb  Pb76  1  0.98901549  0.01330561  0.99198521  1
  Pb  Pb77  1  0.98283242  0.50853995  0.00020883  1
  Pb  Pb78  1  0.48588165  0.00612463  0.00294116  1
  Pb  Pb79  1  0.48823693  0.51348462  0.00310107  1
  C  C80  1  0.23506393  0.26918282  0.78264077  1
  C  C81  1  0.32509037  0.22884280  0.72987450  1
  C  C82  1  0.31493762  0.27053291  0.65093134  1
  C  C83  1  0.34101129  0.37497906  0.62671634  1
  C  C84  1  0.28199526  0.28169673  0.52448583  1
  C  C85  1  0.25313724  0.26530891  0.44559345  1
  C  C86  1  0.21897684  0.35348749  0.40026993  1
  C  C87  1  0.19454798  0.33825488  0.32440671  1
  C  C88  1  0.20266116  0.23453545  0.29130988  1
  C  C89  1  0.17733591  0.22062458  0.20917044  1
  C  C90  1  0.23373538  0.14563323  0.33643515  1
  C  C91  1  0.25887081  0.16075619  0.41229988  1
  C  C92  1  0.27833827  0.21182257  0.58658449  1
  C  C93  1  0.26646751  0.76479924  0.78150704  1
  C  C94  1  0.22943268  0.67310532  0.72918309  1
  C  C95  1  0.27229246  0.68457325  0.65045014  1
  C  C96  1  0.37786456  0.66257599  0.62638721  1
  C  C97  1  0.28273191  0.71825531  0.52384702  1
  C  C98  1  0.26537554  0.74729778  0.44503208  1
  C  C99  1  0.35201792  0.78288447  0.39899962  1
  C  C100  1  0.33576623  0.80738374  0.32317013  1
  C  C101  1  0.23228048  0.79820128  0.29070262  1
  C  C102  1  0.21657549  0.82330279  0.20854635  1
  C  C103  1  0.14488503  0.76629256  0.33671487  1
  C  C104  1  0.16098954  0.74078201  0.41240179  1
  C  C105  1  0.21280902  0.71940105  0.58601728  1
  C  C106  1  0.73176000  0.26726786  0.21862177  1
  C  C107  1  0.76975231  0.17611620  0.27114407  1
  C  C108  1  0.72734281  0.18655042  0.35000020  1
  C  C109  1  0.62367612  0.15895054  0.37479639  1
  C  C110  1  0.71614506  0.22121969  0.47623907  1
  C  C111  1  0.73252018  0.25043709  0.55502248  1
  C  C112  1  0.64464189  0.28462613  0.60079211  1
  C  C113  1  0.66026897  0.30977060  0.67656946  1
  C  C114  1  0.76385639  0.30210954  0.70909243  1
  C  C115  1  0.77846364  0.32829726  0.79103777  1
  C  C116  1  0.85214819  0.27033028  0.66356929  1
  C  C117  1  0.83684977  0.24464004  0.58779512  1
  C  C118  1  0.78545497  0.22516592  0.41386739  1
  C  C119  1  0.73404331  0.73698216  0.21819543  1
  C  C120  1  0.82584409  0.77420535  0.27001244  1
  C  C121  1  0.81583204  0.73123894  0.34873945  1
  C  C122  1  0.84520400  0.62740589  0.37306711  1
  C  C123  1  0.77903614  0.71843820  0.47469832  1
  C  C124  1  0.74936280  0.73417209  0.55369621  1
  C  C125  1  0.71607619  0.64578968  0.59909486  1
  C  C126  1  0.69197830  0.66087216  0.67522850  1
  C  C127  1  0.69916174  0.76451987  0.70841008  1
  C  C128  1  0.67245006  0.77925097  0.79044905  1
  C  C129  1  0.72959314  0.85340276  0.66316250  1
  C  C130  1  0.75476335  0.83853253  0.58717972  1
  C  C131  1  0.77458117  0.78838066  0.41272129  1
  I  I132  1  0.24049242  0.93690655  0.00839754  1
  I  I133  1  0.23746985  0.53716540  0.98552989  1
  I  I134  1  0.73822342  0.05201407  -0.00119672  1
  I  I135  1  0.73859295  0.42989238  0.99272464  1
  I  I136  1  0.06433979  0.25685119  0.00837260  1
  I  I137  1  0.96676041  0.75872441  0.01602882  1
  I  I138  1  0.44900804  0.25890414  1.00063777  1
  I  I139  1  0.57186150  0.75717453  0.99092402  1
  I  I140  1  0.96162457  0.01089937  0.80625121  1
  I  I141  1  0.96566102  0.00960251  0.16813064  1
  I  I142  1  0.96992775  0.56421224  0.82212748  1
  I  I143  1  -0.00158433  0.51441438  0.18293755  1
  I  I144  1  0.48758324  0.02361760  0.82572351  1
  I  I145  1  0.48488867  0.02926810  0.18710069  1
  I  I146  1  0.48550291  0.50514747  0.82092527  1
  I  I147  1  0.44201689  0.51847935  0.18356027  1
  N  N148  1  0.25326694  0.22352740  0.86018944  1
  N  N149  1  0.31994970  0.38079460  0.55094708  1
  N  N150  1  0.27596806  0.23675749  0.15938912  1
  N  N151  1  0.21722569  0.74905824  0.85818304  1
  N  N152  1  0.38293490  0.68313296  0.55032764  1
  N  N153  1  0.22445309  0.72247188  0.15926220  1
  N  N154  1  0.77881379  0.24915416  0.14138525  1
  N  N155  1  0.61782622  0.18143309  0.45044153  1
  N  N156  1  0.76219241  0.22954787  0.84101586  1
  N  N157  1  0.75043520  0.78501785  0.14129914  1
  N  N158  1  0.82152861  0.62061216  0.44855481  1
  N  N159  1  0.77174008  0.77438732  0.84044196  1
