# generated using pymatgen
data_H18PbC12S2(I2N)2
_symmetry_space_group_name_H-M   'P 1'
_cell_length_a   12.17205703
_cell_length_b   12.30861032
_cell_length_c   18.45879206
_cell_angle_alpha   91.00746060
_cell_angle_beta   91.17973340
_cell_angle_gamma   90.07206674
_symmetry_Int_Tables_number   1
_chemical_formula_structural   H18PbC12S2(I2N)2
_chemical_formula_sum   'H72 Pb4 C48 S8 I16 N8'
_cell_volume   2764.49939717
_cell_formula_units_Z   4
loop_
 _symmetry_equiv_pos_site_id
 _symmetry_equiv_pos_as_xyz
  1  'x, y, z'
loop_
 _atom_site_type_symbol
 _atom_site_label
 _atom_site_symmetry_multiplicity
 _atom_site_fract_x
 _atom_site_fract_y
 _atom_site_fract_z
 _atom_site_occupancy
  H  H0  1  0.15387305  0.30045109  0.86147147  1
  H  H1  1  0.29054699  0.29581398  0.87579355  1
  H  H2  1  0.21321828  0.19149357  0.90314027  1
  H  H3  1  0.15942365  0.14338185  0.78199420  1
  H  H4  1  0.30512465  0.13659111  0.79556284  1
  H  H5  1  0.32464637  0.32348539  0.74494101  1
  H  H6  1  0.18091056  0.33444317  0.73486459  1
  H  H7  1  0.25081935  0.38006331  0.59640071  1
  H  H8  1  0.27919245  0.45242447  0.48277569  1
  H  H9  1  0.30473784  0.14667940  0.25310126  1
  H  H10  1  0.38054054  0.26324991  0.23127725  1
  H  H11  1  0.12809327  0.24501385  0.22272219  1
  H  H12  1  0.20549163  0.36209532  0.19889054  1
  H  H13  1  0.15992673  0.25265924  0.09446487  1
  H  H14  1  0.29720735  0.24732027  0.10751557  1
  H  H15  1  0.21693732  0.14231221  0.12994769  1
  H  H16  1  0.27445357  0.12431113  0.38752745  1
  H  H17  1  0.27762967  0.05030176  0.50624076  1
  H  H18  1  0.30521049  0.84100606  0.86729038  1
  H  H19  1  0.30348055  0.70554724  0.87013625  1
  H  H20  1  0.19729379  0.77787503  0.90329693  1
  H  H21  1  0.14583876  0.84274172  0.78614413  1
  H  H22  1  0.13985526  0.69831158  0.79150396  1
  H  H23  1  0.32941514  0.68406899  0.74158762  1
  H  H24  1  0.33715816  0.82699759  0.73489751  1
  H  H25  1  0.38242690  0.75253086  0.59439502  1
  H  H26  1  0.45383301  0.72286140  0.48159299  1
  H  H27  1  0.14539994  0.69877172  0.24962939  1
  H  H28  1  0.26167214  0.62001801  0.22724033  1
  H  H29  1  0.25564835  0.87045219  0.22672151  1
  H  H30  1  0.36895002  0.78867657  0.20062340  1
  H  H31  1  0.27188898  0.83822437  0.09646184  1
  H  H32  1  0.24138947  0.70617535  0.10639036  1
  H  H33  1  0.14995161  0.80507879  0.12919801  1
  H  H34  1  0.12229100  0.72420075  0.38549198  1
  H  H35  1  0.04728552  0.72230423  0.50577748  1
  H  H36  1  0.69599803  0.35830356  0.13921572  1
  H  H37  1  0.69462375  0.22405863  0.12287031  1
  H  H38  1  0.80256580  0.29656551  0.09638339  1
  H  H39  1  0.85419564  0.34419582  0.21883241  1
  H  H40  1  0.85858619  0.20098442  0.20129756  1
  H  H41  1  0.67158210  0.17951567  0.25295280  1
  H  H42  1  0.66033604  0.32189126  0.26522092  1
  H  H43  1  0.61604238  0.25106863  0.40302822  1
  H  H44  1  0.54370121  0.21943315  0.51491073  1
  H  H45  1  0.85077480  0.20114319  0.74601223  1
  H  H46  1  0.73362972  0.12497330  0.76797950  1
  H  H47  1  0.75023211  0.37456268  0.77587897  1
  H  H48  1  0.63286542  0.29761426  0.80051314  1
  H  H49  1  0.74715302  0.34355472  0.90456842  1
  H  H50  1  0.75543191  0.20711958  0.89029131  1
  H  H51  1  0.85783965  0.28999089  0.86683459  1
  H  H52  1  0.87451763  0.22780412  0.61236507  1
  H  H53  1  0.95019829  0.22047553  0.49213032  1
  H  H54  1  0.65627433  0.68843418  0.13827013  1
  H  H55  1  0.79247746  0.69584555  0.13142498  1
  H  H56  1  0.71343453  0.79605691  0.09603892  1
  H  H57  1  0.65552209  0.85440922  0.21363263  1
  H  H58  1  0.80147562  0.85947762  0.20621866  1
  H  H59  1  0.81668488  0.67436837  0.26009783  1
  H  H60  1  0.67303841  0.66648778  0.26702626  1
  H  H61  1  0.74770053  0.62159054  0.40595523  1
  H  H62  1  0.78059964  0.54984328  0.51911038  1
  H  H63  1  0.80065328  0.85366098  0.75102340  1
  H  H64  1  0.87726226  0.73749741  0.77485283  1
  H  H65  1  0.62411965  0.75083809  0.77388805  1
  H  H66  1  0.70321524  0.63590546  0.80115980  1
  H  H67  1  0.65388179  0.74156744  0.90461917  1
  H  H68  1  0.78960028  0.75551824  0.89523161  1
  H  H69  1  0.70257145  0.85559182  0.87073633  1
  H  H70  1  0.77335387  0.87688822  0.61542781  1
  H  H71  1  0.77858455  0.95188834  0.49576379  1
  Pb  Pb72  1  0.99282521  0.00336687  0.00170662  1
  Pb  Pb73  1  0.00465416  0.51469414  0.00006467  1
  Pb  Pb74  1  0.49928347  0.01336841  0.99418339  1
  Pb  Pb75  1  0.48691278  0.50839923  0.99410333  1
  C  C76  1  0.23456855  0.19192081  0.79063667  1
  C  C77  1  0.24945600  0.27609878  0.73229830  1
  C  C78  1  0.25493753  0.23108313  0.65646623  1
  C  C79  1  0.25636087  0.29172481  0.59464000  1
  C  C80  1  0.26592909  0.22838886  0.52934555  1
  C  C81  1  0.27357844  0.27483925  0.45703440  1
  C  C82  1  0.28030881  0.38512994  0.44392997  1
  C  C83  1  0.29077831  0.27498594  0.33036057  1
  C  C84  1  0.30194411  0.23603507  0.25362760  1
  C  C85  1  0.20802414  0.27342465  0.20406691  1
  C  C86  1  0.27889506  0.21266865  0.39081312  1
  C  C87  1  0.27027114  0.11839068  0.54405277  1
  C  C88  1  0.19565595  0.76850993  0.79010574  1
  C  C89  1  0.27991933  0.75743402  0.73082355  1
  C  C90  1  0.23292341  0.74963821  0.65515114  1
  C  C91  1  0.29309840  0.74664244  0.59299586  1
  C  C92  1  0.22795001  0.73515251  0.52790155  1
  C  C93  1  0.27438465  0.72665113  0.45538068  1
  C  C94  1  0.38600061  0.72093393  0.44241929  1
  C  C95  1  0.27482217  0.70948441  0.32823265  1
  C  C96  1  0.23585200  0.69860760  0.25090677  1
  C  C97  1  0.27929957  0.79050036  0.20501683  1
  C  C98  1  0.21169677  0.72062032  0.38883425  1
  C  C99  1  0.11699799  0.73073603  0.54316400  1
  C  C100  1  0.80378961  0.27121832  0.20834582  1
  C  C101  1  0.71921254  0.25382860  0.26664122  1
  C  C102  1  0.76579514  0.24601085  0.34238290  1
  C  C103  1  0.70530424  0.24446712  0.40439725  1
  C  C104  1  0.76993648  0.23382095  0.46950959  1
  C  C105  1  0.72296993  0.22667631  0.54175444  1
  C  C106  1  0.61131430  0.21957645  0.55423316  1
  C  C107  1  0.72133910  0.21252727  0.66854908  1
  C  C108  1  0.76041723  0.20286396  0.74538025  1
  C  C109  1  0.72242168  0.29532094  0.79484973  1
  C  C110  1  0.78515116  0.22308185  0.60842115  1
  C  C111  1  0.88096701  0.22867936  0.45451814  1
  C  C112  1  0.73026352  0.80482506  0.20953233  1
  C  C113  1  0.74280682  0.72365817  0.27034956  1
  C  C114  1  0.75087735  0.77022501  0.34573216  1
  C  C115  1  0.75381025  0.70993973  0.40775072  1
  C  C116  1  0.76536041  0.77355646  0.47304875  1
  C  C117  1  0.77367012  0.72697661  0.54550842  1
  C  C118  1  0.78093948  0.61660850  0.55840100  1
  C  C119  1  0.78901952  0.72583416  0.67280804  1
  C  C120  1  0.79871132  0.76421237  0.75017264  1
  C  C121  1  0.70392836  0.72457303  0.79597389  1
  C  C122  1  0.77790142  0.78853667  0.61215717  1
  C  C123  1  0.76997246  0.88345399  0.45811934  1
  S  S124  1  0.29437059  0.41161950  0.35387820  1
  S  S125  1  0.26414043  0.09410355  0.63497128  1
  S  S126  1  0.41317976  0.70752165  0.35213316  1
  S  S127  1  0.09411186  0.73932319  0.63435539  1
  S  S128  1  0.58346908  0.20723154  0.64415974  1
  S  S129  1  0.90451815  0.23526970  0.36346049  1
  S  S130  1  0.79380997  0.58931846  0.64879693  1
  S  S131  1  0.76151564  0.90716515  0.36696930  1
  I  I132  1  0.24427041  0.01825163  0.97529580  1
  I  I133  1  0.24771930  0.50599865  0.06049278  1
  I  I134  1  0.74659831  0.97347180  0.02693161  1
  I  I135  1  0.74268413  0.52253926  0.96920892  1
  I  I136  1  0.97455600  0.25949052  0.02572979  1
  I  I137  1  1.00036885  0.75471181  0.94855311  1
  I  I138  1  0.48572633  0.26179447  0.02647727  1
  I  I139  1  0.47050266  0.76039243  0.00398790  1
  I  I140  1  0.96430434  0.03070011  0.83360066  1
  I  I141  1  0.04080652  0.98894747  0.17560035  1
  I  I142  1  0.01217467  0.43917380  0.82800912  1
  I  I143  1  0.95540359  0.56065901  0.16345553  1
  I  I144  1  0.51381604  0.98137898  0.81862294  1
  I  I145  1  0.47939210  0.01046005  0.16555534  1
  I  I146  1  0.43723119  0.50408920  0.82565447  1
  I  I147  1  0.55340525  0.51206678  0.16857613  1
  N  N148  1  0.22256822  0.24860600  0.86280143  1
  N  N149  1  0.22228798  0.22631786  0.12933353  1
  N  N150  1  0.25467424  0.77344908  0.86226130  1
  N  N151  1  0.23252317  0.78376867  0.12911654  1
  N  N152  1  0.74535432  0.28852924  0.13715783  1
  N  N153  1  0.77275664  0.28184090  0.86911071  1
  N  N154  1  0.72224477  0.74297297  0.13881620  1
  N  N155  1  0.71358541  0.77211309  0.87135263  1
