# generated using pymatgen
data_H18PbC12S2(I2N)2
_symmetry_space_group_name_H-M   'P 1'
_cell_length_a   12.39023992
_cell_length_b   12.22555861
_cell_length_c   18.33434654
_cell_angle_alpha   90.41500995
_cell_angle_beta   91.00172454
_cell_angle_gamma   89.34893221
_symmetry_Int_Tables_number   1
_chemical_formula_structural   H18PbC12S2(I2N)2
_chemical_formula_sum   'H72 Pb4 C48 S8 I16 N8'
_cell_volume   2776.57023969
_cell_formula_units_Z   4
loop_
 _symmetry_equiv_pos_site_id
 _symmetry_equiv_pos_as_xyz
  1  'x, y, z'
loop_
 _atom_site_type_symbol
 _atom_site_label
 _atom_site_symmetry_multiplicity
 _atom_site_fract_x
 _atom_site_fract_y
 _atom_site_fract_z
 _atom_site_occupancy
  H  H0  1  0.20958514  0.36908279  0.86747530  1
  H  H1  1  0.27967523  0.25828950  0.89634522  1
  H  H2  1  0.14395375  0.26413283  0.90195190  1
  H  H3  1  0.18486037  0.14918154  0.80027114  1
  H  H4  1  0.12902743  0.27560728  0.76865840  1
  H  H5  1  0.37179091  0.21760552  0.77940842  1
  H  H6  1  0.31988614  0.34697105  0.75332098  1
  H  H7  1  0.30322418  0.03984919  0.68717199  1
  H  H8  1  0.26706753  0.46249780  0.49578072  1
  H  H9  1  0.16620248  0.18223025  0.26450476  1
  H  H10  1  0.30771221  0.18001784  0.25901362  1
  H  H11  1  0.16218966  0.37627602  0.21546405  1
  H  H12  1  0.30581264  0.36985326  0.20795340  1
  H  H13  1  0.15155176  0.21718443  0.13385554  1
  H  H14  1  0.28537415  0.21479351  0.12631580  1
  H  H15  1  0.21325766  0.32443682  0.09618546  1
  H  H16  1  0.25322694  0.12920782  0.40735060  1
  H  H17  1  0.27822360  0.38017628  0.61854336  1
  H  H18  1  0.36764289  0.77958284  0.86661000  1
  H  H19  1  0.25966356  0.71061638  0.89341235  1
  H  H20  1  0.26581451  0.84828330  0.90424316  1
  H  H21  1  0.14809577  0.81571349  0.80198617  1
  H  H22  1  0.27263621  0.87094172  0.77290269  1
  H  H23  1  0.21686303  0.62604874  0.77380126  1
  H  H24  1  0.34284042  0.67929996  0.74906281  1
  H  H25  1  0.03914245  0.69898276  0.68242691  1
  H  H26  1  0.45686678  0.73104953  0.49554122  1
  H  H27  1  0.17971315  0.83482490  0.26449648  1
  H  H28  1  0.18100085  0.69092309  0.25430633  1
  H  H29  1  0.37279238  0.84048948  0.22046300  1
  H  H30  1  0.36743998  0.69614111  0.20384638  1
  H  H31  1  0.21669271  0.86341709  0.13845698  1
  H  H32  1  0.21954682  0.72769924  0.11999412  1
  H  H33  1  0.32458508  0.80279779  0.09758654  1
  H  H34  1  0.12832759  0.74581099  0.40438529  1
  H  H35  1  0.37493807  0.72103672  0.61747875  1
  H  H36  1  0.63434098  0.29418483  0.13309043  1
  H  H37  1  0.73872308  0.21644158  0.10377104  1
  H  H38  1  0.74188895  0.35418759  0.09939178  1
  H  H39  1  0.85226521  0.30780687  0.20081847  1
  H  H40  1  0.73009330  0.36763343  0.23220330  1
  H  H41  1  0.78100462  0.12072297  0.22242288  1
  H  H42  1  0.65405653  0.17557717  0.24732277  1
  H  H43  1  0.95765762  0.19547205  0.31435931  1
  H  H44  1  0.54208527  0.23629932  0.50358113  1
  H  H45  1  0.81598708  0.33675951  0.73781763  1
  H  H46  1  0.82235298  0.19221159  0.74151813  1
  H  H47  1  0.62571475  0.33376269  0.78522137  1
  H  H48  1  0.63152092  0.18774565  0.78690183  1
  H  H49  1  0.77346692  0.33780567  0.87312516  1
  H  H50  1  0.78351872  0.20104970  0.87305982  1
  H  H51  1  0.67069851  0.26462177  0.90257682  1
  H  H52  1  0.87129800  0.24764480  0.59357874  1
  H  H53  1  0.62236639  0.21797625  0.38163567  1
  H  H54  1  0.72554340  0.62932439  0.13484262  1
  H  H55  1  0.78658854  0.74114018  0.10497465  1
  H  H56  1  0.65160477  0.72976892  0.09772823  1
  H  H57  1  0.68739349  0.85137984  0.19759088  1
  H  H58  1  0.63440635  0.72547382  0.22936607  1
  H  H59  1  0.87525841  0.78556802  0.22598866  1
  H  H60  1  0.82659616  0.65642579  0.25110449  1
  H  H61  1  0.80296340  0.96359612  0.31698232  1
  H  H62  1  0.76511153  0.53939417  0.50519638  1
  H  H63  1  0.67107689  0.82015121  0.73513085  1
  H  H64  1  0.81282679  0.81952724  0.74429824  1
  H  H65  1  0.66633473  0.62544039  0.78070886  1
  H  H66  1  0.80947327  0.62876765  0.79505395  1
  H  H67  1  0.65167600  0.78570979  0.86142165  1
  H  H68  1  0.78476485  0.77563115  0.88110884  1
  H  H69  1  0.70512904  0.67260092  0.90233136  1
  H  H70  1  0.75506496  0.87237550  0.59439602  1
  H  H71  1  0.77999157  0.62267335  0.38310025  1
  Pb  Pb72  1  0.00072966  1.00146128  0.99205969  1
  Pb  Pb73  1  -0.00006660  0.51340005  0.99481294  1
  Pb  Pb74  1  0.51151798  0.00808501  0.00140709  1
  Pb  Pb75  1  0.48995955  0.49286590  0.00330193  1
  C  C76  1  0.20026566  0.23682934  0.79429939  1
  C  C77  1  0.30282868  0.25875383  0.75199774  1
  C  C78  1  0.29254938  0.22018628  0.67407215  1
  C  C79  1  0.29335828  0.11152487  0.65287635  1
  C  C80  1  0.27309657  0.23716021  0.54680745  1
  C  C81  1  0.26290416  0.28267736  0.47367631  1
  C  C82  1  0.26173066  0.39363828  0.45815440  1
  C  C83  1  0.24695056  0.27940653  0.34559811  1
  C  C84  1  0.23798840  0.23454981  0.26933837  1
  C  C85  1  0.23210668  0.32076985  0.20997900  1
  C  C86  1  0.25417376  0.21841084  0.40828790  1
  C  C87  1  0.28051510  0.29130594  0.61333835  1
  C  C88  1  0.23441760  0.79805169  0.79510717  1
  C  C89  1  0.25564768  0.69675630  0.74847102  1
  C  C90  1  0.21678582  0.70884148  0.67097279  1
  C  C91  1  0.10973847  0.70846035  0.64877291  1
  C  C92  1  0.23426570  0.72661486  0.54423008  1
  C  C93  1  0.27958202  0.73570272  0.47175768  1
  C  C94  1  0.38912946  0.73640074  0.45728707  1
  C  C95  1  0.27658545  0.75101644  0.34394399  1
  C  C96  1  0.23263270  0.76168871  0.26739502  1
  C  C97  1  0.31866672  0.77139076  0.20963408  1
  C  C98  1  0.21633844  0.74420589  0.40594700  1
  C  C99  1  0.28732393  0.71961092  0.61117419  1
  C  C100  1  0.76550149  0.29459702  0.20645796  1
  C  C101  1  0.74134691  0.19124576  0.24901493  1
  C  C102  1  0.77982151  0.20321502  0.32698702  1
  C  C103  1  0.88723887  0.20489287  0.34847574  1
  C  C104  1  0.76395265  0.22831660  0.45368437  1
  C  C105  1  0.71956560  0.23981035  0.52651375  1
  C  C106  1  0.61015140  0.24174119  0.54149307  1
  C  C107  1  0.72341595  0.25486327  0.65453015  1
  C  C108  1  0.76709217  0.26220127  0.73141005  1
  C  C109  1  0.68030290  0.26230432  0.78905241  1
  C  C110  1  0.78331249  0.24783371  0.59220600  1
  C  C111  1  0.71006112  0.21719971  0.38721413  1
  C  C112  1  0.70507747  0.76399611  0.20547185  1
  C  C113  1  0.80700459  0.74442366  0.25156074  1
  C  C114  1  0.79387627  0.78307413  0.32887269  1
  C  C115  1  0.79293910  0.89149054  0.35042656  1
  C  C116  1  0.77114242  0.76516545  0.45514726  1
  C  C117  1  0.76189730  0.71909781  0.52780426  1
  C  C118  1  0.76064555  0.60809367  0.54297310  1
  C  C119  1  0.75090857  0.72211204  0.65579037  1
  C  C120  1  0.74313635  0.76660191  0.73204360  1
  C  C121  1  0.73568135  0.67926171  0.79031850  1
  C  C122  1  0.75578702  0.78320039  0.59328607  1
  C  C123  1  0.78069766  0.71143315  0.38874483  1
  S  S124  1  0.28004775  0.09675957  0.56030080  1
  S  S125  1  0.25050304  0.41749358  0.36655558  1
  S  S126  1  0.09578525  0.72073628  0.55622529  1
  S  S127  1  0.41285637  0.74715258  0.36604900  1
  S  S128  1  0.90236856  0.22264094  0.44071437  1
  S  S129  1  0.58703819  0.25240300  0.63289249  1
  S  S130  1  0.77687357  0.90553991  0.44247797  1
  S  S131  1  0.75299555  0.58395771  0.63449627  1
  I  I132  1  0.25256148  0.01523130  0.97535208  1
  I  I133  1  0.24457550  0.53019919  0.03903216  1
  I  I134  1  0.75496840  0.03900574  0.03902170  1
  I  I135  1  0.74191028  0.49287283  0.98331518  1
  I  I136  1  0.99591848  0.25814380  0.99699302  1
  I  I137  1  0.92873782  0.75957333  0.00262909  1
  I  I138  1  0.47812353  0.24841712  0.94902893  1
  I  I139  1  0.49063432  0.75233312  0.02049865  1
  I  I140  1  0.95281925  1.00184192  0.82330052  1
  I  I141  1  0.05576824  0.00824871  0.16856703  1
  I  I142  1  0.01294805  0.49548763  0.81902121  1
  I  I143  1  0.97512958  0.50972740  0.16657892  1
  I  I144  1  0.51942729  0.94436508  0.82709068  1
  I  I145  1  0.46197367  0.06145697  0.16557214  1
  I  I146  1  0.47110060  0.52752350  0.83398952  1
  I  I147  1  0.52456100  0.48774814  0.17931453  1
  N  N148  1  0.20940888  0.28463501  0.86984333  1
  N  N149  1  0.21978705  0.26585540  0.13666655  1
  N  N150  1  0.28411184  0.78207476  0.86967739  1
  N  N151  1  0.26587588  0.79334347  0.13685402  1
  N  N152  1  0.71766139  0.28904685  0.13080806  1
  N  N153  1  0.73131497  0.26629089  0.86385239  1
  N  N154  1  0.71855214  0.71341162  0.13142834  1
  N  N155  1  0.71810258  0.73190881  0.86338153  1
