# generated using pymatgen
data_H18PbC12S2(I2N)2
_symmetry_space_group_name_H-M   'P 1'
_cell_length_a   12.44898004
_cell_length_b   12.47003191
_cell_length_c   18.14956369
_cell_angle_alpha   91.30085309
_cell_angle_beta   90.99538014
_cell_angle_gamma   89.99014877
_symmetry_Int_Tables_number   1
_chemical_formula_structural   H18PbC12S2(I2N)2
_chemical_formula_sum   'H72 Pb4 C48 S8 I16 N8'
_cell_volume   2816.37207172
_cell_formula_units_Z   4
loop_
 _symmetry_equiv_pos_site_id
 _symmetry_equiv_pos_as_xyz
  1  'x, y, z'
loop_
 _atom_site_type_symbol
 _atom_site_label
 _atom_site_symmetry_multiplicity
 _atom_site_fract_x
 _atom_site_fract_y
 _atom_site_fract_z
 _atom_site_occupancy
  H  H0  1  0.18054676  0.22182362  0.88340568  1
  H  H1  1  0.18935616  0.34933373  0.85991000  1
  H  H2  1  0.29596774  0.28661853  0.90076015  1
  H  H3  1  0.33046673  0.30646197  0.77237337  1
  H  H4  1  0.31768461  0.16866114  0.79516528  1
  H  H5  1  0.13666717  0.30925967  0.73066969  1
  H  H6  1  0.12222111  0.17317197  0.75461235  1
  H  H7  1  0.23425005  0.02279250  0.67203994  1
  H  H8  1  0.30337512  0.43554558  0.49200605  1
  H  H9  1  0.33386455  0.46974703  0.35163979  1
  H  H10  1  0.37228732  0.35721894  0.22961558  1
  H  H11  1  0.37648457  0.21568690  0.23488700  1
  H  H12  1  0.17264404  0.20899603  0.22485391  1
  H  H13  1  0.17038565  0.35145944  0.21668888  1
  H  H14  1  0.27997308  0.19901199  0.11376638  1
  H  H15  1  0.16213094  0.25940306  0.09764630  1
  H  H16  1  0.27454484  0.33173030  0.10567164  1
  H  H17  1  0.21298448  0.35465882  0.60277735  1
  H  H18  1  0.22231756  0.81485504  0.88701177  1
  H  H19  1  0.34980227  0.80799715  0.86185755  1
  H  H20  1  0.29017598  0.70082170  0.89946014  1
  H  H21  1  0.30673655  0.66741450  0.77004005  1
  H  H22  1  0.16897093  0.68026587  0.79346628  1
  H  H23  1  0.31101380  0.86132635  0.73494181  1
  H  H24  1  0.17408892  0.87580711  0.75927577  1
  H  H25  1  0.02407689  0.76438823  0.67298542  1
  H  H26  1  0.43808476  0.69857626  0.49006096  1
  H  H27  1  0.47199273  0.66872994  0.34809305  1
  H  H28  1  0.35804724  0.62943051  0.22551165  1
  H  H29  1  0.21600075  0.62608040  0.23188980  1
  H  H30  1  0.21138066  0.83000160  0.22992502  1
  H  H31  1  0.35374768  0.83122215  0.22037662  1
  H  H32  1  0.19960401  0.72427287  0.11520676  1
  H  H33  1  0.25992055  0.84228920  0.10199018  1
  H  H34  1  0.33135963  0.72925366  0.10579656  1
  H  H35  1  0.35702316  0.78703584  0.60415970  1
  H  H36  1  0.78482227  0.31150310  0.11609641  1
  H  H37  1  0.65574093  0.30686773  0.13708307  1
  H  H38  1  0.71715795  0.19780483  0.09816576  1
  H  H39  1  0.69243032  0.16685257  0.22654805  1
  H  H40  1  0.83151612  0.17780849  0.20590618  1
  H  H41  1  0.68928152  0.35989782  0.26869195  1
  H  H42  1  0.82535931  0.37508860  0.24435347  1
  H  H43  1  0.97677527  0.26298772  0.32659754  1
  H  H44  1  0.56290582  0.19637768  0.50742879  1
  H  H45  1  0.52853906  0.16348717  0.64797263  1
  H  H46  1  0.64191708  0.12457489  0.76920404  1
  H  H47  1  0.78368088  0.12076866  0.76291472  1
  H  H48  1  0.79024037  0.32371436  0.77436244  1
  H  H49  1  0.64767669  0.32631030  0.78318762  1
  H  H50  1  0.79889614  0.21236245  0.88398448  1
  H  H51  1  0.74148258  0.33168981  0.90184322  1
  H  H52  1  0.66705176  0.22045220  0.89289837  1
  H  H53  1  0.64398288  0.28578840  0.39674283  1
  H  H54  1  0.68872140  0.77364310  0.11470755  1
  H  H55  1  0.70321683  0.64699382  0.13821934  1
  H  H56  1  0.80730047  0.71412918  0.10160369  1
  H  H57  1  0.83642413  0.69466730  0.23252641  1
  H  H58  1  0.82253922  0.83170047  0.20833003  1
  H  H59  1  0.64048096  0.68889965  0.26500200  1
  H  H60  1  0.62564605  0.82510229  0.24031657  1
  H  H61  1  0.73666851  0.97671498  0.32702906  1
  H  H62  1  0.80482424  0.56511817  0.50885491  1
  H  H63  1  0.83611928  0.53081700  0.65044217  1
  H  H64  1  0.87215029  0.64331132  0.77316432  1
  H  H65  1  0.87465322  0.78509974  0.76790081  1
  H  H66  1  0.67080490  0.78928017  0.77282009  1
  H  H67  1  0.67023818  0.64728090  0.78211337  1
  H  H68  1  0.78246510  0.80017347  0.88595739  1
  H  H69  1  0.66245610  0.74426631  0.90006359  1
  H  H70  1  0.77213397  0.66854438  0.89572520  1
  H  H71  1  0.71259165  0.64482854  0.39599564  1
  Pb  Pb72  1  0.99624213  0.99515592  0.00705131  1
  Pb  Pb73  1  0.00907438  0.49983783  0.00122469  1
  Pb  Pb74  1  0.50201492  0.99862060  0.00276338  1
  Pb  Pb75  1  0.50312483  0.49493617  0.99100314  1
  C  C76  1  0.27351818  0.24420823  0.78836657  1
  C  C77  1  0.17943083  0.23225009  0.73372049  1
  C  C78  1  0.21635910  0.19809933  0.65841630  1
  C  C79  1  0.24020497  0.09344406  0.63852583  1
  C  C80  1  0.26407596  0.21809278  0.53490188  1
  C  C81  1  0.28431836  0.26550946  0.46446144  1
  C  C82  1  0.30153664  0.37261214  0.44944440  1
  C  C83  1  0.31844734  0.39085869  0.37375371  1
  C  C84  1  0.31498645  0.29849413  0.33051640  1
  C  C85  1  0.32781148  0.28705474  0.24887677  1
  C  C86  1  0.21933250  0.27899854  0.20842316  1
  C  C87  1  0.23027932  0.26908585  0.59911388  1
  C  C88  1  0.24468057  0.72433947  0.78800115  1
  C  C89  1  0.23356353  0.81900825  0.73654721  1
  C  C90  1  0.19987310  0.78318796  0.65994174  1
  C  C91  1  0.09517702  0.75948769  0.63934756  1
  C  C92  1  0.22039537  0.73636947  0.53495954  1
  C  C93  1  0.26776921  0.71614731  0.46376240  1
  C  C94  1  0.37512191  0.69983851  0.44772166  1
  C  C95  1  0.39317349  0.68331135  0.37144653  1
  C  C96  1  0.30025194  0.68571061  0.32890800  1
  C  C97  1  0.28814052  0.67379480  0.24694808  1
  C  C98  1  0.28066244  0.78325606  0.21081196  1
  C  C99  1  0.27129935  0.76992777  0.60007343  1
  C  C100  1  0.75603172  0.22280813  0.21133024  1
  C  C101  1  0.76670264  0.31770200  0.26552051  1
  C  C102  1  0.80113439  0.28238384  0.34087513  1
  C  C103  1  0.90603155  0.25894196  0.36059796  1
  C  C104  1  0.78072148  0.23625721  0.46453489  1
  C  C105  1  0.73292487  0.21596816  0.53491556  1
  C  C106  1  0.62563199  0.19822664  0.54996984  1
  C  C107  1  0.60731683  0.17996402  0.62549581  1
  C  C108  1  0.69990831  0.18286099  0.66831242  1
  C  C109  1  0.71193556  0.16916124  0.74962170  1
  C  C110  1  0.72009856  0.27713305  0.79082342  1
  C  C111  1  0.72985329  0.26921001  0.40036057  1
  C  C112  1  0.77924110  0.75554099  0.21352110  1
  C  C113  1  0.68243916  0.76654839  0.26368935  1
  C  C114  1  0.71614605  0.80144053  0.34047247  1
  C  C115  1  0.73996237  0.90618440  0.36105562  1
  C  C116  1  0.76169076  0.78170893  0.46552920  1
  C  C117  1  0.78155425  0.73426449  0.53650272  1
  C  C118  1  0.80082307  0.62741138  0.55172196  1
  C  C119  1  0.81815722  0.60911757  0.62778713  1
  C  C120  1  0.81291499  0.70129583  0.67108943  1
  C  C121  1  0.82676036  0.71298811  0.75296313  1
  C  C122  1  0.71840825  0.72033740  0.79096509  1
  C  C123  1  0.72884600  0.73062275  0.40028413  1
  S  S124  1  0.27957310  0.08161310  0.54884232  1
  S  S125  1  0.28891622  0.18834747  0.38368153  1
  S  S126  1  0.08384560  0.72045382  0.54863669  1
  S  S127  1  0.19014061  0.71048888  0.38340741  1
  S  S128  1  0.91743828  0.22045417  0.45030052  1
  S  S129  1  0.81017367  0.20996047  0.61521499  1
  S  S130  1  0.77815007  0.91791440  0.45186479  1
  S  S131  1  0.78457672  0.81115933  0.61749759  1
  I  I132  1  0.24793041  0.98136444  0.00394670  1
  I  I133  1  0.25760229  0.53472439  0.01745327  1
  I  I134  1  0.74671387  0.04960258  0.00112082  1
  I  I135  1  0.75533640  0.48727033  0.98225444  1
  I  I136  1  0.01716650  0.24909263  0.00068570  1
  I  I137  1  0.95382799  0.74823497  0.00555541  1
  I  I138  1  0.45902132  0.24791050  0.98368521  1
  I  I139  1  0.52307685  0.74832571  0.01187695  1
  I  I140  1  0.98688374  0.99281532  0.82799320  1
  I  I141  1  0.01180814  0.00614251  0.18034218  1
  I  I142  1  0.02740670  0.47948077  0.82501478  1
  I  I143  1  0.99543707  0.50864023  0.17554145  1
  I  I144  1  0.48953990  0.95800250  0.82625848  1
  I  I145  1  0.50329406  0.01923637  0.17651658  1
  I  I146  1  0.47933553  0.50560366  0.82017328  1
  I  I147  1  0.54793768  0.49388469  0.16938861  1
  N  N148  1  0.23269941  0.27772885  0.86287945  1
  N  N149  1  0.23534470  0.26638378  0.12668928  1
  N  N150  1  0.27850168  0.76364951  0.86405853  1
  N  N151  1  0.26688288  0.76922817  0.12887884  1
  N  N152  1  0.72612312  0.26188517  0.13576265  1
  N  N153  1  0.73278641  0.25920136  0.87193036  1
  N  N154  1  0.74293884  0.72037158  0.13741375  1
  N  N155  1  0.73470631  0.73456820  0.87287013  1
