# generated using pymatgen
data_H5PbC2SI4N3
_symmetry_space_group_name_H-M   'P 1'
_cell_length_a   11.90261677
_cell_length_b   12.00782992
_cell_length_c   10.04500653
_cell_angle_alpha   88.51782711
_cell_angle_beta   87.76627720
_cell_angle_gamma   94.98372096
_symmetry_Int_Tables_number   1
_chemical_formula_structural   H5PbC2SI4N3
_chemical_formula_sum   'H20 Pb4 C8 S4 I16 N12'
_cell_volume   1428.54687656
_cell_formula_units_Z   4
loop_
 _symmetry_equiv_pos_site_id
 _symmetry_equiv_pos_as_xyz
  1  'x, y, z'
loop_
 _atom_site_type_symbol
 _atom_site_label
 _atom_site_symmetry_multiplicity
 _atom_site_fract_x
 _atom_site_fract_y
 _atom_site_fract_z
 _atom_site_occupancy
  H  H0  1  0.20420344  0.35902473  0.70384762  1
  H  H1  1  0.31156043  0.27673842  0.74549023  1
  H  H2  1  0.17776076  0.21693366  0.72535432  1
  H  H3  1  0.24340044  0.36812064  0.26024561  1
  H  H4  1  0.30144758  0.17206420  0.23226229  1
  H  H5  1  0.34735657  0.68598314  0.71149131  1
  H  H6  1  0.20510544  0.67223940  0.73915861  1
  H  H7  1  0.27681867  0.80079890  0.76515991  1
  H  H8  1  0.35483554  0.76759867  0.27455862  1
  H  H9  1  0.15016306  0.79200171  0.25453012  1
  H  H10  1  0.65048876  0.31489680  0.28944275  1
  H  H11  1  0.71982107  0.19935525  0.23588370  1
  H  H12  1  0.79244259  0.32714826  0.26399097  1
  H  H13  1  0.63726297  0.23314152  0.72668219  1
  H  H14  1  0.84192613  0.20460406  0.74843120  1
  H  H15  1  0.79718449  0.63890139  0.29902758  1
  H  H16  1  0.82605795  0.78131079  0.27725273  1
  H  H17  1  0.69265841  0.72268453  0.25466821  1
  H  H18  1  0.76179364  0.63681981  0.74304072  1
  H  H19  1  0.69755468  0.83059757  0.76764582  1
  Pb  Pb20  1  0.99734795  0.00363058  0.99922415  1
  Pb  Pb21  1  0.99607467  0.49565787  0.99796013  1
  Pb  Pb22  1  0.49504842  0.99892739  0.99854428  1
  Pb  Pb23  1  0.49737521  0.50418160  0.00145035  1
  C  C24  1  0.25714415  0.26864615  0.54749736  1
  C  C25  1  0.28639583  0.21016611  0.32766067  1
  C  C26  1  0.25673627  0.75479898  0.56558365  1
  C  C27  1  0.19055209  0.78001499  0.34868631  1
  C  C28  1  0.73829755  0.24407749  0.43640062  1
  C  C29  1  0.80235730  0.21750135  0.65386893  1
  C  C30  1  0.74456156  0.73129640  0.45409794  1
  C  C31  1  0.71448173  0.79209909  0.67281794  1
  S  S32  1  0.30093300  0.14748632  0.47791575  1
  S  S33  1  0.12622178  0.77593036  0.50129543  1
  S  S34  1  0.86784873  0.22080286  0.50182908  1
  S  S35  1  0.69736433  0.85186605  0.52152769  1
  I  I36  1  0.24157963  0.89309010  0.99979115  1
  I  I37  1  0.24945370  0.55096098  0.11457620  1
  I  I38  1  0.75812494  0.10831449  0.00349606  1
  I  I39  1  0.74836448  0.45062109  0.88638342  1
  I  I40  1  0.10258538  0.24971261  0.03338099  1
  I  I41  1  0.92205740  0.74262228  0.95876313  1
  I  I42  1  0.44788767  0.24861256  0.90823679  1
  I  I43  1  0.57838622  0.75748565  0.06296414  1
  I  I44  1  0.04583751  0.04420681  0.68409949  1
  I  I45  1  0.95173057  0.95523717  0.31348040  1
  I  I46  1  0.07329499  0.50570994  0.69133047  1
  I  I47  1  0.92707848  0.48917618  0.30875977  1
  I  I48  1  0.49390145  0.97388978  0.68753290  1
  I  I49  1  0.50198785  0.02004401  0.30998516  1
  I  I50  1  0.46435043  0.54965003  0.69201151  1
  I  I51  1  0.53880017  0.45939528  0.30899962  1
  N  N52  1  0.23837177  0.28132687  0.68794858  1
  N  N53  1  0.23791896  0.34891520  0.46347535  1
  N  N54  1  0.25363315  0.31211706  0.33942332  1
  N  N55  1  0.27166888  0.73116425  0.70368051  1
  N  N56  1  0.34044566  0.75315228  0.47784075  1
  N  N57  1  0.29991023  0.76783320  0.35618102  1
  N  N58  1  0.72472126  0.26861099  0.29811857  1
  N  N59  1  0.65421336  0.24694614  0.52332238  1
  N  N60  1  0.69346528  0.23145171  0.64553421  1
  N  N61  1  0.76423535  0.71728045  0.31381394  1
  N  N62  1  0.76681976  0.65319514  0.53950003  1
  N  N63  1  0.75048534  0.69133766  0.66284531  1
