# generated using pymatgen
data_H5PbC2SI4N3
_symmetry_space_group_name_H-M   'P 1'
_cell_length_a   12.48285657
_cell_length_b   11.99290767
_cell_length_c   9.71029475
_cell_angle_alpha   90.78048676
_cell_angle_beta   89.75492849
_cell_angle_gamma   91.83928213
_symmetry_Int_Tables_number   1
_chemical_formula_structural   H5PbC2SI4N3
_chemical_formula_sum   'H20 Pb4 C8 S4 I16 N12'
_cell_volume   1452.79244176
_cell_formula_units_Z   4
loop_
 _symmetry_equiv_pos_site_id
 _symmetry_equiv_pos_as_xyz
  1  'x, y, z'
loop_
 _atom_site_type_symbol
 _atom_site_label
 _atom_site_symmetry_multiplicity
 _atom_site_fract_x
 _atom_site_fract_y
 _atom_site_fract_z
 _atom_site_occupancy
  H  H0  1  0.33046112  0.30467469  0.74464698  1
  H  H1  1  0.19562148  0.32258402  0.73039314  1
  H  H2  1  0.24669086  0.19491836  0.78049097  1
  H  H3  1  0.27860199  0.39940088  0.47144607  1
  H  H4  1  0.25481277  0.29636750  0.24845532  1
  H  H5  1  0.31012133  0.67652786  0.74176999  1
  H  H6  1  0.32389188  0.81826866  0.74147647  1
  H  H7  1  0.19865252  0.75507754  0.78467235  1
  H  H8  1  0.40341508  0.76168172  0.48047668  1
  H  H9  1  0.30812400  0.74187794  0.25613724  1
  H  H10  1  0.67609637  0.18264434  0.26669129  1
  H  H11  1  0.68809060  0.32537087  0.26291472  1
  H  H12  1  0.79993152  0.24739171  0.22006971  1
  H  H13  1  0.59809141  0.24417530  0.52747686  1
  H  H14  1  0.69545902  0.26094282  0.74859393  1
  H  H15  1  0.80280140  0.68316750  0.26563388  1
  H  H16  1  0.66713828  0.68898968  0.26081865  1
  H  H17  1  0.74124194  0.80602038  0.21858903  1
  H  H18  1  0.71887992  0.60048976  0.52772263  1
  H  H19  1  0.75175171  0.70142974  0.74993806  1
  Pb  Pb20  1  0.99511034  0.00398502  0.99450083  1
  Pb  Pb21  1  0.00347945  0.49990631  0.99977658  1
  Pb  Pb22  1  0.49709986  0.00356656  0.00735334  1
  Pb  Pb23  1  0.50385680  0.50064756  0.99309764  1
  C  C24  1  0.26083447  0.23392727  0.57087409  1
  C  C25  1  0.26733309  0.30919706  0.46500340  1
  C  C26  1  0.24165470  0.74873165  0.57768370  1
  C  C27  1  0.31678336  0.75225359  0.47329108  1
  C  C28  1  0.75901516  0.25494185  0.42718294  1
  C  C29  1  0.68487412  0.25201709  0.53272592  1
  C  C30  1  0.73788945  0.76634710  0.42926184  1
  C  C31  1  0.73252935  0.69041068  0.53441394  1
  S  S32  1  0.23815847  0.10288014  0.50230349  1
  S  S33  1  0.11637147  0.73107125  0.50810285  1
  S  S34  1  0.88526445  0.26920291  0.49473918  1
  S  S35  1  0.76702666  0.89620870  0.49781478  1
  I  I36  1  0.24745295  0.05047801  0.96090825  1
  I  I37  1  0.25426232  0.45941304  0.09133536  1
  I  I38  1  0.74211160  0.94308616  0.02769853  1
  I  I39  1  0.75390113  0.52545851  0.89281727  1
  I  I40  1  0.97667969  0.25112999  0.12659951  1
  I  I41  1  0.02433056  0.75057080  0.88690331  1
  I  I42  1  0.52586989  0.24978432  0.88033385  1
  I  I43  1  0.45506045  0.75116583  0.09686370  1
  I  I44  1  0.01660359  0.04922504  0.67255942  1
  I  I45  1  0.98113758  0.93974455  0.30513586  1
  I  I46  1  0.07307234  0.45667923  0.68280585  1
  I  I47  1  0.92696689  0.54967700  0.31055997  1
  I  I48  1  0.48554428  0.92578914  0.69516335  1
  I  I49  1  0.52493573  0.06250978  0.32748785  1
  I  I50  1  0.42931184  0.53139237  0.68408901  1
  I  I51  1  0.57176578  0.47448124  0.30919991  1
  N  N52  1  0.25899136  0.26389429  0.71459195  1
  N  N53  1  0.25608610  0.25495650  0.34266697  1
  N  N54  1  0.24262089  0.14522796  0.34376092  1
  N  N55  1  0.26763487  0.75073434  0.72092897  1
  N  N56  1  0.26634753  0.74194292  0.35051203  1
  N  N57  1  0.16158676  0.73032626  0.34957260  1
  N  N58  1  0.73124613  0.25165365  0.28448134  1
  N  N59  1  0.73670815  0.26030443  0.65459255  1
  N  N60  1  0.84157887  0.26985239  0.65400752  1
  N  N61  1  0.73592145  0.73697400  0.28530027  1
  N  N62  1  0.74904994  0.74349704  0.65662236  1
  N  N63  1  0.76611591  0.85270422  0.65596195  1
