# generated using pymatgen
data_H6PbC2S(IN)4
_symmetry_space_group_name_H-M   'P 1'
_cell_length_a   12.13691594
_cell_length_b   12.04594636
_cell_length_c   10.55052174
_cell_angle_alpha   89.81582787
_cell_angle_beta   89.71159111
_cell_angle_gamma   90.13091576
_symmetry_Int_Tables_number   1
_chemical_formula_structural   H6PbC2S(IN)4
_chemical_formula_sum   'H24 Pb4 C8 S4 I16 N16'
_cell_volume   1542.46141963
_cell_formula_units_Z   4
loop_
 _symmetry_equiv_pos_site_id
 _symmetry_equiv_pos_as_xyz
  1  'x, y, z'
loop_
 _atom_site_type_symbol
 _atom_site_label
 _atom_site_symmetry_multiplicity
 _atom_site_fract_x
 _atom_site_fract_y
 _atom_site_fract_z
 _atom_site_occupancy
  H  H0  1  0.25324339  0.28914767  0.79381051  1
  H  H1  1  0.32161611  0.36233806  0.68252937  1
  H  H2  1  0.18173652  0.36021320  0.68461388  1
  H  H3  1  0.17994806  0.15757346  0.64950648  1
  H  H4  1  0.32542494  0.15792514  0.64697445  1
  H  H5  1  0.24698672  0.37773141  0.23637401  1
  H  H6  1  0.29003223  0.75262611  0.79363666  1
  H  H7  1  0.35942312  0.67971000  0.68418228  1
  H  H8  1  0.36228781  0.82115888  0.68209104  1
  H  H9  1  0.16021882  0.82533557  0.64772883  1
  H  H10  1  0.15967458  0.67845162  0.64896321  1
  H  H11  1  0.37930222  0.74870853  0.23733256  1
  H  H12  1  0.71006137  0.24745650  0.20630940  1
  H  H13  1  0.63778846  0.17885064  0.31776339  1
  H  H14  1  0.64060725  0.32028997  0.31580523  1
  H  H15  1  0.84032287  0.32166182  0.35109136  1
  H  H16  1  0.83988922  0.17476597  0.35220016  1
  H  H17  1  0.62065765  0.25145161  0.76255110  1
  H  H18  1  0.74691640  0.71104394  0.20613350  1
  H  H19  1  0.81833770  0.63993800  0.31538262  1
  H  H20  1  0.67847857  0.63777114  0.31733849  1
  H  H21  1  0.67457473  0.84218975  0.35294491  1
  H  H22  1  0.82004694  0.84256330  0.35061017  1
  H  H23  1  0.75308589  0.62216118  0.76347290  1
  Pb  Pb24  1  1.00016443  0.99935557  0.99995495  1
  Pb  Pb25  1  -0.00016956  0.49917211  0.00018230  1
  Pb  Pb26  1  0.49935125  0.00026003  1.00010218  1
  Pb  Pb27  1  0.50006355  0.49989903  0.00047668  1
  C  C28  1  0.25255212  0.20779675  0.62142470  1
  C  C29  1  0.25085917  0.22881494  0.48232393  1
  C  C30  1  0.20922586  0.75178363  0.62131286  1
  C  C31  1  0.23053825  0.75063303  0.48213477  1
  C  C32  1  0.79081248  0.24826616  0.37868226  1
  C  C33  1  0.76947748  0.24934867  0.51778157  1
  C  C34  1  0.74743448  0.79233120  0.37858049  1
  C  C35  1  0.74910066  0.77124051  0.51766041  1
  S  S36  1  0.25044160  0.12372875  0.37109451  1
  S  S37  1  0.12649502  0.74916080  0.37089081  1
  S  S38  1  0.87350245  0.25069128  0.62910888  1
  S  S39  1  0.74956166  0.87626036  0.62901568  1
  I  I40  1  0.25079206  0.07810435  0.94587824  1
  I  I41  1  0.25008060  0.42776665  0.01229509  1
  I  I42  1  0.74913001  0.92235544  0.05393310  1
  I  I43  1  0.74998242  0.57220015  0.98779663  1
  I  I44  1  0.92388856  0.24968890  0.05975007  1
  I  I45  1  0.07605131  0.74983417  0.94017715  1
  I  I46  1  0.57605721  0.25027820  0.99198767  1
  I  I47  1  0.42413457  0.74970101  0.00806688  1
  I  I48  1  -0.00038855  0.01045051  0.68914247  1
  I  I49  1  1.00056862  0.98954187  0.31081822  1
  I  I50  1  0.02109247  0.48368772  0.69194618  1
  I  I51  1  0.97881319  0.51613523  0.30824497  1
  I  I52  1  0.49415107  0.98641744  0.69007040  1
  I  I53  1  0.50571833  0.01365207  0.30977779  1
  I  I54  1  0.47439485  0.50359998  0.69297874  1
  I  I55  1  0.52563628  0.49636228  0.30750930  1
  N  N56  1  0.25262662  0.31079765  0.69819142  1
  N  N57  1  0.24930958  0.32766507  0.42705978  1
  N  N58  1  0.24760907  0.31231623  0.30259170  1
  N  N59  1  0.24728575  0.21251056  0.25493396  1
  N  N60  1  0.31153569  0.75148207  0.69789209  1
  N  N61  1  0.32893169  0.75051121  0.42723666  1
  N  N62  1  0.31414556  0.74866976  0.30289880  1
  N  N63  1  0.21501361  0.74706278  0.25488617  1
  N  N64  1  0.68853241  0.24854613  0.30204068  1
  N  N65  1  0.67107313  0.24957446  0.57271415  1
  N  N66  1  0.68582505  0.25137326  0.69702694  1
  N  N67  1  0.78494605  0.25284367  0.74507095  1
  N  N68  1  0.74745812  0.68935938  0.30174614  1
  N  N69  1  0.75068919  0.67237220  0.57286107  1
  N  N70  1  0.75241478  0.68762987  0.69732705  1
  N  N71  1  0.75273442  0.78739728  0.74507601  1
