# generated using pymatgen
data_H7PbC3I4N3O
_symmetry_space_group_name_H-M   'P 1'
_cell_length_a   12.09994681
_cell_length_b   12.13941213
_cell_length_c   10.44270837
_cell_angle_alpha   89.20581796
_cell_angle_beta   90.40684190
_cell_angle_gamma   84.21013365
_symmetry_Int_Tables_number   1
_chemical_formula_structural   H7PbC3I4N3O
_chemical_formula_sum   'H28 Pb4 C12 I16 N12 O4'
_cell_volume   1525.86285387
_cell_formula_units_Z   4
loop_
 _symmetry_equiv_pos_site_id
 _symmetry_equiv_pos_as_xyz
  1  'x, y, z'
loop_
 _atom_site_type_symbol
 _atom_site_label
 _atom_site_symmetry_multiplicity
 _atom_site_fract_x
 _atom_site_fract_y
 _atom_site_fract_z
 _atom_site_occupancy
  H  H0  1  0.28300325  0.30168199  0.81445841  1
  H  H1  1  0.28129802  0.17729597  0.74543186  1
  H  H2  1  0.38543756  0.25522207  0.71634315  1
  H  H3  1  0.14677228  0.31842298  0.64339418  1
  H  H4  1  0.25693603  0.40280825  0.62180474  1
  H  H5  1  0.28451090  0.28595694  0.19932604  1
  H  H6  1  0.27457060  0.08033658  0.28590450  1
  H  H7  1  0.27823549  0.73022303  0.81607127  1
  H  H8  1  0.16449167  0.72849315  0.72395611  1
  H  H9  1  0.27375543  0.62671421  0.71286043  1
  H  H10  1  0.29175486  0.86502480  0.65079198  1
  H  H11  1  0.39739046  0.75219872  0.63839523  1
  H  H12  1  0.29304070  0.73204370  0.20207542  1
  H  H13  1  0.08720380  0.71997138  0.28530799  1
  H  H14  1  0.68852520  0.21635520  0.18777498  1
  H  H15  1  0.81380924  0.21904133  0.25484137  1
  H  H16  1  0.73640604  0.11339104  0.28696481  1
  H  H17  1  0.67042176  0.35024107  0.35494982  1
  H  H18  1  0.59029498  0.23796958  0.38089353  1
  H  H19  1  0.71528363  0.21690326  0.80349132  1
  H  H20  1  0.91675005  0.24912480  0.71839825  1
  H  H21  1  0.75867568  0.72191442  0.18388681  1
  H  H22  1  0.75476968  0.83875605  0.27122969  1
  H  H23  1  0.86313029  0.73795352  0.28460204  1
  H  H24  1  0.62901449  0.70752126  0.35448743  1
  H  H25  1  0.74650595  0.60639335  0.36842148  1
  H  H26  1  0.77321277  0.71689766  0.79937168  1
  H  H27  1  0.78706361  0.91978132  0.70703421  1
  Pb  Pb28  1  0.01920513  0.99725226  0.00231505  1
  Pb  Pb29  1  0.99541999  0.48961835  0.01001501  1
  Pb  Pb30  1  0.50706339  0.98475430  0.99557450  1
  Pb  Pb31  1  0.50797834  0.50220784  0.98939557  1
  C  C32  1  0.23626435  0.31673345  0.62239995  1
  C  C33  1  0.26039353  0.27355473  0.49309980  1
  C  C34  1  0.27223520  0.15702330  0.33849305  1
  C  C35  1  0.30786067  0.77649013  0.62847987  1
  C  C36  1  0.27452377  0.75572818  0.49494843  1
  C  C37  1  0.16204356  0.73453416  0.33788396  1
  C  C38  1  0.67568500  0.26083154  0.37897217  1
  C  C39  1  0.72255248  0.23989841  0.50931360  1
  C  C40  1  0.84042738  0.24116532  0.66566866  1
  C  C41  1  0.71888243  0.69517070  0.37456337  1
  C  C42  1  0.74366761  0.73124075  0.50573783  1
  C  C43  1  0.77230781  0.84481904  0.65663358  1
  I  I44  1  0.25761963  0.09101155  0.00899731  1
  I  I45  1  0.25942058  0.42345103  0.00970693  1
  I  I46  1  0.76883026  0.94682580  0.97871056  1
  I  I47  1  0.74112671  0.60765686  0.99311335  1
  I  I48  1  0.91218565  0.25065636  0.02022389  1
  I  I49  1  0.06024410  0.73667904  0.98235124  1
  I  I50  1  0.57111775  0.23948606  0.98572629  1
  I  I51  1  0.39643497  0.75370454  0.00288833  1
  I  I52  1  0.03549208  0.01038499  0.69527606  1
  I  I53  1  0.98205655  0.97486323  0.30853645  1
  I  I54  1  0.98868703  0.48632889  0.70942145  1
  I  I55  1  0.98341406  0.52118984  0.31812406  1
  I  I56  1  0.49291196  0.99746874  0.69573637  1
  I  I57  1  0.54563979  0.99145770  0.30728456  1
  I  I58  1  0.45933158  0.49609860  0.67631260  1
  I  I59  1  0.50411296  0.50698355  0.28337155  1
  N  N60  1  0.30052564  0.25754277  0.72921509  1
  N  N61  1  0.27277977  0.33328480  0.39079844  1
  N  N62  1  0.27899054  0.25800553  0.29409122  1
  N  N63  1  0.24988920  0.71136841  0.72394816  1
  N  N64  1  0.33689199  0.75133833  0.39427036  1
  N  N65  1  0.26380854  0.73753230  0.29601841  1
  N  N66  1  0.73419676  0.19852730  0.27332774  1
  N  N67  1  0.66545864  0.22315999  0.61147965  1
  N  N68  1  0.74148093  0.22483432  0.70920913  1
  N  N69  1  0.77758852  0.75406046  0.27391834  1
  N  N70  1  0.74958347  0.67088342  0.60966037  1
  N  N71  1  0.76792284  0.74456939  0.70381812  1
  O  O72  1  0.25909880  0.16197180  0.46514732  1
  O  O73  1  0.16421440  0.74450625  0.46542128  1
  O  O74  1  0.83288028  0.25234192  0.53809484  1
  O  O75  1  0.75833413  0.84112101  0.52983743  1
