# generated using pymatgen
data_H7PbC3I4N3O
_symmetry_space_group_name_H-M   'P 1'
_cell_length_a   12.03157215
_cell_length_b   11.97962869
_cell_length_c   10.48782715
_cell_angle_alpha   88.77471674
_cell_angle_beta   88.88039347
_cell_angle_gamma   90.28950331
_symmetry_Int_Tables_number   1
_chemical_formula_structural   H7PbC3I4N3O
_chemical_formula_sum   'H28 Pb4 C12 I16 N12 O4'
_cell_volume   1510.99322680
_cell_formula_units_Z   4
loop_
 _symmetry_equiv_pos_site_id
 _symmetry_equiv_pos_as_xyz
  1  'x, y, z'
loop_
 _atom_site_type_symbol
 _atom_site_label
 _atom_site_symmetry_multiplicity
 _atom_site_fract_x
 _atom_site_fract_y
 _atom_site_fract_z
 _atom_site_occupancy
  H  H0  1  0.23977810  0.25306834  0.81282173  1
  H  H1  1  0.16768745  0.16624582  0.71826799  1
  H  H2  1  0.30730087  0.15737536  0.72358244  1
  H  H3  1  0.18834718  0.36539445  0.63471116  1
  H  H4  1  0.33458308  0.34406206  0.63376175  1
  H  H5  1  0.24272649  0.38758633  0.33610178  1
  H  H6  1  0.23967399  0.21016991  0.19371166  1
  H  H7  1  0.25397055  0.75643988  0.81134013  1
  H  H8  1  0.17152226  0.83418119  0.71542172  1
  H  H9  1  0.15577760  0.69308339  0.72330695  1
  H  H10  1  0.36472078  0.81117698  0.63123589  1
  H  H11  1  0.34291152  0.66367734  0.63607012  1
  H  H12  1  0.38624418  0.75817566  0.33515267  1
  H  H13  1  0.20823125  0.76155408  0.19273039  1
  H  H14  1  0.74527240  0.26080544  0.18850177  1
  H  H15  1  0.83286513  0.33213864  0.28355730  1
  H  H16  1  0.83960125  0.19074680  0.27611591  1
  H  H17  1  0.63479365  0.31079922  0.36652093  1
  H  H18  1  0.65674730  0.16330440  0.36732714  1
  H  H19  1  0.61319306  0.25754439  0.66455853  1
  H  H20  1  0.79080552  0.25968950  0.80699301  1
  H  H21  1  0.74571492  0.74782530  0.18747530  1
  H  H22  1  0.66854628  0.83114879  0.28322100  1
  H  H23  1  0.80751704  0.84647573  0.27576615  1
  H  H24  1  0.68989938  0.63571752  0.36708135  1
  H  H25  1  0.83657742  0.65663284  0.36385153  1
  H  H26  1  0.73724532  0.61293476  0.66380342  1
  H  H27  1  0.73860709  0.79062626  0.80675032  1
  Pb  Pb28  1  0.99496517  0.00110202  0.99927988  1
  Pb  Pb29  1  0.00139348  0.50337788  0.99922337  1
  Pb  Pb30  1  0.49755835  0.00298880  0.99897626  1
  Pb  Pb31  1  0.49871094  0.49950044  0.00196511  1
  C  C32  1  0.25336401  0.30148677  0.62173503  1
  C  C33  1  0.24736607  0.25505140  0.49212976  1
  C  C34  1  0.24377992  0.30206103  0.37186246  1
  C  C35  1  0.30134901  0.74516754  0.62096836  1
  C  C36  1  0.25462466  0.75193854  0.49116940  1
  C  C37  1  0.30099184  0.75598854  0.37072409  1
  C  C38  1  0.69817558  0.24513242  0.37930997  1
  C  C39  1  0.74488276  0.25111650  0.50888260  1
  C  C40  1  0.69844126  0.25534955  0.62910003  1
  C  C41  1  0.75593489  0.69927439  0.37817064  1
  C  C42  1  0.74883782  0.74561441  0.50799399  1
  C  C43  1  0.74262000  0.69849466  0.62820702  1
  I  I44  1  0.24556994  0.07050248  0.02147038  1
  I  I45  1  0.24945929  0.40274554  0.00125129  1
  I  I46  1  0.74578139  0.92465150  0.98008970  1
  I  I47  1  0.75034132  0.59293286  -0.00021045  1
  I  I48  1  0.92754606  0.25300776  0.98216229  1
  I  I49  1  0.07570940  0.75337958  0.01695406  1
  I  I50  1  0.59731719  0.25116358  0.00895571  1
  I  I51  1  0.40709666  0.75058775  0.98853178  1
  I  I52  1  0.03813732  0.99601468  0.69331219  1
  I  I53  1  0.94670126  0.01109790  0.30400594  1
  I  I54  1  0.02425514  0.53305554  0.69323495  1
  I  I55  1  0.98260713  0.47765714  0.30658354  1
  I  I56  1  0.46698634  0.02918024  0.69411666  1
  I  I57  1  0.52094546  0.97256456  0.30643325  1
  I  I58  1  0.50365223  0.49356099  0.69443581  1
  I  I59  1  0.49900948  0.50541634  0.30816328  1
  N  N60  1  0.24046724  0.21458040  0.72433859  1
  N  N61  1  0.24171417  0.21268205  0.29404052  1
  N  N62  1  0.24320504  0.11605452  0.35314062  1
  N  N63  1  0.21523760  0.75833098  0.72285809  1
  N  N64  1  0.21167752  0.75921402  0.29310402  1
  N  N65  1  0.11565238  0.75737439  0.35269888  1
  N  N66  1  0.78445540  0.25881371  0.27676743  1
  N  N67  1  0.78773985  0.25757129  0.70679429  1
  N  N68  1  0.88379865  0.25571287  0.64740921  1
  N  N69  1  0.74387171  0.78604632  0.27603483  1
  N  N70  1  0.74118542  0.78776500  0.70624947  1
  N  N71  1  0.74565424  0.88445065  0.64720439  1
  O  O72  1  0.24703087  0.14203229  0.47850839  1
  O  O73  1  0.14200939  0.75287929  0.47805808  1
  O  O74  1  0.85751017  0.25137229  0.52218901  1
  O  O75  1  0.75057866  0.85861537  0.52167588  1
