# generated using pymatgen
data_H5PbC2SI4N3
_symmetry_space_group_name_H-M   'P 1'
_cell_length_a   12.13833508
_cell_length_b   12.16283594
_cell_length_c   9.82549359
_cell_angle_alpha   88.29818118
_cell_angle_beta   87.66866308
_cell_angle_gamma   89.02685594
_symmetry_Int_Tables_number   1
_chemical_formula_structural   H5PbC2SI4N3
_chemical_formula_sum   'H20 Pb4 C8 S4 I16 N12'
_cell_volume   1448.58153034
_cell_formula_units_Z   4
loop_
 _symmetry_equiv_pos_site_id
 _symmetry_equiv_pos_as_xyz
  1  'x, y, z'
loop_
 _atom_site_type_symbol
 _atom_site_label
 _atom_site_symmetry_multiplicity
 _atom_site_fract_x
 _atom_site_fract_y
 _atom_site_fract_z
 _atom_site_occupancy
  H  H0  1  0.15297663  0.21595904  0.74045704  1
  H  H1  1  0.29101253  0.18523563  0.72552638  1
  H  H2  1  0.24429469  0.31554293  0.76391152  1
  H  H3  1  0.21972667  0.10762733  0.46762492  1
  H  H4  1  0.24236759  0.20769413  0.24496999  1
  H  H5  1  0.19409754  0.81902294  0.72335389  1
  H  H6  1  0.18717961  0.67968913  0.72086986  1
  H  H7  1  0.30908239  0.74159118  0.76108726  1
  H  H8  1  0.10498707  0.72473195  0.46444533  1
  H  H9  1  0.20566613  0.75065127  0.24032178  1
  H  H10  1  0.81711109  0.31337143  0.27001234  1
  H  H11  1  0.80778499  0.17364187  0.26646691  1
  H  H12  1  0.69038727  0.25294986  0.24280083  1
  H  H13  1  0.91364558  0.27263349  0.51648833  1
  H  H14  1  0.82844675  0.23852018  0.74932689  1
  H  H15  1  0.70349109  0.82087863  0.27278286  1
  H  H16  1  0.84147073  0.79079432  0.26644062  1
  H  H17  1  0.75201165  0.68972766  0.23847185  1
  H  H18  1  0.77818304  0.90033914  0.53116236  1
  H  H19  1  0.74519180  0.80522732  0.75580744  1
  Pb  Pb20  1  0.00654321  0.99332004  0.00156953  1
  Pb  Pb21  1  0.99598839  0.50523797  0.98758304  1
  Pb  Pb22  1  0.49776637  0.00370155  0.99970953  1
  Pb  Pb23  1  0.49817148  0.49626938  0.99265937  1
  C  C24  1  0.23316741  0.27383934  0.56098963  1
  C  C25  1  0.22920783  0.19638882  0.45860364  1
  C  C26  1  0.26929284  0.75120524  0.55502847  1
  C  C27  1  0.19301219  0.73941611  0.45409293  1
  C  C28  1  0.74482887  0.23999462  0.44135450  1
  C  C29  1  0.82714527  0.25336787  0.53533080  1
  C  C30  1  0.75518579  0.73403807  0.44136503  1
  C  C31  1  0.76234517  0.81265794  0.54242583  1
  S  S32  1  0.25817102  0.38436121  0.35379291  1
  S  S33  1  0.37970420  0.77861465  0.34690204  1
  S  S34  1  0.64830570  0.20461876  0.65789824  1
  S  S35  1  0.71761019  0.62824378  0.65026273  1
  I  I36  1  0.24618914  0.03275279  0.11751173  1
  I  I37  1  0.24674129  0.41490906  -0.00009989  1
  I  I38  1  0.75209483  0.96988487  0.89756085  1
  I  I39  1  0.74454347  0.59709713  0.99364044  1
  I  I40  1  0.96461978  0.24941892  0.91497452  1
  I  I41  1  0.03878507  0.74337086  0.10402280  1
  I  I42  1  0.53269182  0.24752040  0.09952480  1
  I  I43  1  0.42177288  0.75175949  0.96363738  1
  I  I44  1  0.07604835  0.97468807  0.68577768  1
  I  I45  1  0.92792957  0.01866467  0.31462381  1
  I  I46  1  0.02378735  0.56343182  0.67445005  1
  I  I47  1  0.96547750  0.44084872  0.30302839  1
  I  I48  1  0.42981642  0.05190990  0.68944936  1
  I  I49  1  0.57419717  0.95905081  0.31056386  1
  I  I50  1  0.50618179  0.44992150  0.68052420  1
  I  I51  1  0.49327484  0.53576825  0.30928844  1
  N  N52  1  0.22888526  0.24719824  0.70569457  1
  N  N53  1  0.24058584  0.24887056  0.33708879  1
  N  N54  1  0.25015054  0.37694500  0.51699299  1
  N  N55  1  0.24042788  0.74628020  0.69892234  1
  N  N56  1  0.24563549  0.75231644  0.33207293  1
  N  N57  1  0.37140030  0.77607669  0.51015887  1
  N  N58  1  0.76430880  0.24652634  0.29573528  1
  N  N59  1  0.78284165  0.23679376  0.66066836  1
  N  N60  1  0.64660133  0.21181488  0.49483696  1
  N  N61  1  0.76493496  0.75856343  0.29643560  1
  N  N62  1  0.74522205  0.76292414  0.66429882  1
  N  N63  1  0.72930014  0.63358202  0.48671943  1
