# generated using pymatgen
data_H5PbC2SI4N3
_symmetry_space_group_name_H-M   'P 1'
_cell_length_a   11.93962200
_cell_length_b   11.86854391
_cell_length_c   9.96670987
_cell_angle_alpha   91.74512292
_cell_angle_beta   91.16431923
_cell_angle_gamma   94.38940813
_symmetry_Int_Tables_number   1
_chemical_formula_structural   H5PbC2SI4N3
_chemical_formula_sum   'H20 Pb4 C8 S4 I16 N12'
_cell_volume   1407.18263456
_cell_formula_units_Z   4
loop_
 _symmetry_equiv_pos_site_id
 _symmetry_equiv_pos_as_xyz
  1  'x, y, z'
loop_
 _atom_site_type_symbol
 _atom_site_label
 _atom_site_symmetry_multiplicity
 _atom_site_fract_x
 _atom_site_fract_y
 _atom_site_fract_z
 _atom_site_occupancy
  H  H0  1  0.33572590  0.27835632  0.72066958  1
  H  H1  1  0.31613376  0.13360706  0.69635675  1
  H  H2  1  0.20876325  0.21009722  0.75040811  1
  H  H3  1  0.17505234  0.39498189  0.55289529  1
  H  H4  1  0.25400312  0.12694311  0.25448212  1
  H  H5  1  0.20491966  0.70369292  0.77887954  1
  H  H6  1  0.13606631  0.81841592  0.72369541  1
  H  H7  1  0.27624194  0.83181150  0.74888279  1
  H  H8  1  0.40294982  0.69462262  0.57922062  1
  H  H9  1  0.13287585  0.74840968  0.28281862  1
  H  H10  1  0.69305639  0.17515220  0.23783867  1
  H  H11  1  0.83359070  0.18589929  0.26548816  1
  H  H12  1  0.76570934  0.30165796  0.21121059  1
  H  H13  1  0.56644794  0.30144197  0.41918417  1
  H  H14  1  0.84929448  0.26198768  0.70186444  1
  H  H15  1  0.81942097  0.77839195  0.24770383  1
  H  H16  1  0.70872411  0.85615686  0.29444443  1
  H  H17  1  0.68918964  0.71374966  0.27332372  1
  H  H18  1  0.83181059  0.59556217  0.46100481  1
  H  H19  1  0.75575986  0.88147439  0.73569906  1
  Pb  Pb20  1  0.99461373  0.01577903  0.99775520  1
  Pb  Pb21  1  1.00431944  0.49381378  1.00243115  1
  Pb  Pb22  1  0.49628941  0.97795500  0.01487636  1
  Pb  Pb23  1  0.49304732  0.50088056  0.00900118  1
  C  C24  1  0.24931353  0.22787016  0.54778816  1
  C  C25  1  0.20339859  0.32211923  0.49743778  1
  C  C26  1  0.22699719  0.74503294  0.57665746  1
  C  C27  1  0.32716596  0.71314508  0.52462222  1
  C  C28  1  0.74381079  0.25765036  0.41356372  1
  C  C29  1  0.64467557  0.28651890  0.47098712  1
  C  C30  1  0.76966007  0.76768108  0.44954732  1
  C  C31  1  0.80630185  0.67285057  0.50963355  1
  S  S32  1  0.18820569  0.30782056  0.32928927  1
  S  S33  1  0.31707395  0.70103778  0.35572533  1
  S  S34  1  0.66095566  0.30022355  0.63954469  1
  S  S35  1  0.81306586  0.69336409  0.67747426  1
  I  I36  1  0.24176899  0.95258729  0.11232866  1
  I  I37  1  0.26179465  0.61753003  0.01581555  1
  I  I38  1  0.74544441  0.05615632  0.88942789  1
  I  I39  1  0.75007653  0.40328165  0.97359975  1
  I  I40  1  0.12316558  0.26205963  0.97675088  1
  I  I41  1  0.94778916  0.75006494  0.06069015  1
  I  I42  1  0.46223030  0.23678651  0.08193484  1
  I  I43  1  0.61042917  0.73811198  0.95732160  1
  I  I44  1  0.04234426  0.98802970  0.68678070  1
  I  I45  1  0.95184820  0.04256838  0.30825429  1
  I  I46  1  0.01148439  0.51580237  0.69002820  1
  I  I47  1  0.98641151  0.46926220  0.31584031  1
  I  I48  1  0.42907806  0.97395161  0.70034424  1
  I  I49  1  0.56886458  0.99074940  0.32121602  1
  I  I50  1  0.45120553  0.45506329  0.68982799  1
  I  I51  1  0.53925357  0.55697039  0.32577398  1
  N  N52  1  0.27767578  0.21104004  0.68661313  1
  N  N53  1  0.24921663  0.18308092  0.33776527  1
  N  N54  1  0.27304318  0.14824729  0.45619580  1
  N  N55  1  0.20906388  0.77273780  0.71592823  1
  N  N56  1  0.18316705  0.74083614  0.36709065  1
  N  N57  1  0.14506441  0.75989230  0.48592139  1
  N  N58  1  0.75959276  0.23176366  0.27318092  1
  N  N59  1  0.79553539  0.26451598  0.62053430  1
  N  N60  1  0.83019890  0.24713819  0.49988235  1
  N  N61  1  0.74778285  0.77959879  0.30820483  1
  N  N62  1  0.76366577  0.82266413  0.65618450  1
  N  N63  1  0.74817073  0.85335722  0.53415811  1
