# generated using pymatgen
data_H6PbC2S(IN)4
_symmetry_space_group_name_H-M   'P 1'
_cell_length_a   12.04470804
_cell_length_b   12.00221339
_cell_length_c   10.45636698
_cell_angle_alpha   91.82134631
_cell_angle_beta   91.52606174
_cell_angle_gamma   90.18000297
_symmetry_Int_Tables_number   1
_chemical_formula_structural   H6PbC2S(IN)4
_chemical_formula_sum   'H24 Pb4 C8 S4 I16 N16'
_cell_volume   1510.29382671
_cell_formula_units_Z   4
loop_
 _symmetry_equiv_pos_site_id
 _symmetry_equiv_pos_as_xyz
  1  'x, y, z'
loop_
 _atom_site_type_symbol
 _atom_site_label
 _atom_site_symmetry_multiplicity
 _atom_site_fract_x
 _atom_site_fract_y
 _atom_site_fract_z
 _atom_site_occupancy
  H  H0  1  0.24503157  0.22270325  0.80655227  1
  H  H1  1  0.17189148  0.31529088  0.71902467  1
  H  H2  1  0.31047956  0.32058441  0.72188689  1
  H  H3  1  0.17085790  0.12907867  0.61584179  1
  H  H4  1  0.31851003  0.13011793  0.62172857  1
  H  H5  1  0.25174302  0.21950220  0.18687314  1
  H  H6  1  0.21793266  0.74978134  0.80643397  1
  H  H7  1  0.31476105  0.81720742  0.72200324  1
  H  H8  1  0.31111763  0.67756713  0.71972575  1
  H  H9  1  0.12600665  0.82207169  0.62261644  1
  H  H10  1  0.12756468  0.67328292  0.61513089  1
  H  H11  1  0.21611406  0.75249765  0.18675033  1
  H  H12  1  0.78389802  0.24963114  0.19356640  1
  H  H13  1  0.69025532  0.32182776  0.28062765  1
  H  H14  1  0.68712162  0.18216303  0.27690114  1
  H  H15  1  0.87314919  0.32610160  0.38567534  1
  H  H16  1  0.87577672  0.17726678  0.37713902  1
  H  H17  1  0.78514142  0.24300928  0.81302378  1
  H  H18  1  0.75415593  0.78272758  0.19326503  1
  H  H19  1  0.68936084  0.68388546  0.27680127  1
  H  H20  1  0.82762650  0.68944038  0.27953969  1
  H  H21  1  0.68112048  0.87405498  0.37833841  1
  H  H22  1  0.82900300  0.87463567  0.38440967  1
  H  H23  1  0.74670824  0.78710179  0.81286966  1
  Pb  Pb24  1  0.00229503  0.99327802  0.99974504  1
  Pb  Pb25  1  0.99465128  0.49527072  0.99945602  1
  Pb  Pb26  1  0.49378814  0.99444247  1.00039252  1
  Pb  Pb27  1  0.50285555  0.49183414  0.00063344  1
  C  C28  1  0.24468257  0.18367840  0.61078107  1
  C  C29  1  0.24552671  0.24125472  0.48643307  1
  C  C30  1  0.18029028  0.74834691  0.61069168  1
  C  C31  1  0.23785484  0.75093588  0.48613083  1
  C  C32  1  0.82100939  0.25054067  0.38940543  1
  C  C33  1  0.76325986  0.24700100  0.51379198  1
  C  C34  1  0.75488322  0.82037212  0.38916530  1
  C  C35  1  0.75375789  0.76299400  0.51359818  1
  S  S36  1  0.24184612  0.38605559  0.33038117  1
  S  S37  1  0.38187130  0.75821843  0.32955909  1
  S  S38  1  0.61929987  0.23839452  0.67030779  1
  S  S39  1  0.75740742  0.61950482  0.67118549  1
  I  I40  1  0.24871781  0.09450872  0.99475133  1
  I  I41  1  0.24955071  0.42802331  0.02794392  1
  I  I42  1  0.74781383  0.91699123  0.00618196  1
  I  I43  1  0.74844559  0.58426323  0.97480734  1
  I  I44  1  0.91323272  0.24556772  0.00789227  1
  I  I45  1  0.08953749  0.74494091  0.99196161  1
  I  I46  1  0.58236544  0.24295459  0.98090207  1
  I  I47  1  0.42155451  0.74367838  0.01914160  1
  I  I48  1  0.99307857  0.99724594  0.69596565  1
  I  I49  1  0.00955023  -0.00000676  0.30333340  1
  I  I50  1  0.01778366  0.47378992  0.69529458  1
  I  I51  1  0.97723289  0.52607900  0.30297941  1
  I  I52  1  0.47670483  0.97227777  0.69532443  1
  I  I53  1  0.51522855  0.02217698  0.30554090  1
  I  I54  1  0.45510556  0.48989145  0.69532309  1
  I  I55  1  0.55168992  0.50321168  0.30479579  1
  N  N56  1  0.24303748  0.26554976  0.72073995  1
  N  N57  1  0.25071144  0.18113705  0.37486893  1
  N  N58  1  0.25061364  0.25052333  0.28203957  1
  N  N59  1  0.24053904  0.35212568  0.47755816  1
  N  N60  1  0.26141372  0.74826601  0.72068146  1
  N  N61  1  0.17771695  0.75017503  0.37508227  1
  N  N62  1  0.24685460  0.75274368  0.28151390  1
  N  N63  1  0.34864984  0.75476485  0.47685971  1
  N  N64  1  0.74015995  0.25092252  0.27915895  1
  N  N65  1  0.82343932  0.24749548  0.62485538  1
  N  N66  1  0.75438014  0.24356371  0.71829963  1
  N  N67  1  0.65253113  0.24250315  0.52301750  1
  N  N68  1  0.75644472  0.73915830  0.27857281  1
  N  N69  1  0.74817703  0.82402065  0.62453544  1
  N  N70  1  0.74822926  0.75543920  0.71808263  1
  N  N71  1  0.75898479  0.65228172  0.52361131  1
