# generated using pymatgen
data_H7PbC3I4N3O
_symmetry_space_group_name_H-M   'P 1'
_cell_length_a   12.13003124
_cell_length_b   12.03788053
_cell_length_c   10.47811844
_cell_angle_alpha   91.44947641
_cell_angle_beta   90.13510085
_cell_angle_gamma   89.57047100
_symmetry_Int_Tables_number   1
_chemical_formula_structural   H7PbC3I4N3O
_chemical_formula_sum   'H28 Pb4 C12 I16 N12 O4'
_cell_volume   1529.47730778
_cell_formula_units_Z   4
loop_
 _symmetry_equiv_pos_site_id
 _symmetry_equiv_pos_as_xyz
  1  'x, y, z'
loop_
 _atom_site_type_symbol
 _atom_site_label
 _atom_site_symmetry_multiplicity
 _atom_site_fract_x
 _atom_site_fract_y
 _atom_site_fract_z
 _atom_site_occupancy
  H  H0  1  0.27000016  0.28418565  0.80121605  1
  H  H1  1  0.20508437  0.37587738  0.70745103  1
  H  H2  1  0.34151142  0.34746569  0.68604991  1
  H  H3  1  0.14130016  0.20531070  0.64102476  1
  H  H4  1  0.27241457  0.14224462  0.65257210  1
  H  H5  1  0.24788185  0.06935401  0.37848032  1
  H  H6  1  0.27227902  0.37862828  0.23432115  1
  H  H7  1  0.29297938  0.74087379  0.80085530  1
  H  H8  1  0.38590029  0.79522310  0.70099159  1
  H  H9  1  0.34651487  0.66116073  0.68243895  1
  H  H10  1  0.21541727  0.87120836  0.64469791  1
  H  H11  1  0.14844369  0.74247860  0.66019608  1
  H  H12  1  0.07328954  0.74976433  0.38805505  1
  H  H13  1  0.37850598  0.71841387  0.23467070  1
  H  H14  1  0.71372196  0.22181904  0.19847099  1
  H  H15  1  0.62184718  0.28672966  0.29410879  1
  H  H16  1  0.65044415  0.15030801  0.31383606  1
  H  H17  1  0.78901006  0.35451365  0.35914330  1
  H  H18  1  0.85357248  0.22242324  0.34395519  1
  H  H19  1  0.92406470  0.25319083  0.61782837  1
  H  H20  1  0.61703243  0.22399899  0.76662060  1
  H  H21  1  0.75867776  0.71163180  0.19849097  1
  H  H22  1  0.70452801  0.61797539  0.29671199  1
  H  H23  1  0.83845385  0.65310479  0.31061174  1
  H  H24  1  0.63357380  0.79018989  0.36639234  1
  H  H25  1  0.76219073  0.85512964  0.34501724  1
  H  H26  1  0.77175953  0.92939691  0.61681666  1
  H  H27  1  0.78634834  0.62099938  0.76288576  1
  Pb  Pb28  1  0.01145997  -0.00116886  0.99469053  1
  Pb  Pb29  1  0.00916784  0.48733736  0.00554613  1
  Pb  Pb30  1  0.50581411  0.98446078  0.00748067  1
  Pb  Pb31  1  0.51963980  0.49641145  0.99181684  1
  C  C32  1  0.22982141  0.21817761  0.62306755  1
  C  C33  1  0.24852576  0.23759142  0.48503262  1
  C  C34  1  0.25378522  0.15905831  0.38567739  1
  C  C35  1  0.22437880  0.78110134  0.62634156  1
  C  C36  1  0.24111627  0.75565750  0.48787824  1
  C  C37  1  0.16235827  0.74638201  0.39146092  1
  C  C38  1  0.77783025  0.26520212  0.37571929  1
  C  C39  1  0.75807676  0.24706347  0.51389458  1
  C  C40  1  0.83535228  0.24432056  0.61186578  1
  C  C41  1  0.72318372  0.77904315  0.37812811  1
  C  C42  1  0.75138998  0.76073133  0.51437865  1
  C  C43  1  0.76705477  0.83960927  0.61176096  1
  I  I44  1  0.25615173  0.08260425  0.94487524  1
  I  I45  1  0.26555966  0.43598248  0.02941086  1
  I  I46  1  0.75466001  0.92129701  0.05990903  1
  I  I47  1  0.76415095  0.57692976  0.97329158  1
  I  I48  1  0.90774986  0.24719577  0.04835423  1
  I  I49  1  0.07875492  0.74326364  0.94200357  1
  I  I50  1  0.56275614  0.23938776  0.97447222  1
  I  I51  1  0.42206109  0.73953949  0.02349164  1
  I  I52  1  0.99146698  0.01536523  0.68582484  1
  I  I53  1  0.02776434  0.98279061  0.30397625  1
  I  I54  1  0.02741360  0.46699391  0.69481799  1
  I  I55  1  0.99141941  0.51694603  0.31176649  1
  I  I56  1  0.51734107  0.94993456  0.69828375  1
  I  I57  1  0.49400405  0.00630396  0.31529986  1
  I  I58  1  0.49024259  0.49761334  0.68774240  1
  I  I59  1  0.54584483  0.48582132  0.30092635  1
  N  N60  1  0.26550967  0.31196332  0.70811883  1
  N  N61  1  0.27047090  0.32379329  0.31346136  1
  N  N62  1  0.25859122  0.33949263  0.43324180  1
  N  N63  1  0.31776231  0.74121799  0.70591143  1
  N  N64  1  0.32506199  0.71710550  0.31526044  1
  N  N65  1  0.34145051  0.73864577  0.43351605  1
  N  N66  1  0.68528276  0.22718131  0.29213875  1
  N  N67  1  0.67179862  0.22472877  0.68657192  1
  N  N68  1  0.65682867  0.23525422  0.56718324  1
  N  N69  1  0.75891761  0.68531994  0.29227274  1
  N  N70  1  0.78613762  0.67475010  0.68357720  1
  N  N71  1  0.76228756  0.65890449  0.56616699  1
  O  O72  1  0.26593917  0.21246778  0.27619663  1
  O  O73  1  0.21421209  0.72332342  0.28132319  1
  O  O74  1  0.78170312  0.23310680  0.72223094  1
  O  O75  1  0.78866817  0.78653038  0.71973138  1
