# generated using pymatgen
data_H7PbC3I4N3O
_symmetry_space_group_name_H-M   'P 1'
_cell_length_a   12.02298213
_cell_length_b   11.98755304
_cell_length_c   10.46718328
_cell_angle_alpha   88.19829773
_cell_angle_beta   87.93574843
_cell_angle_gamma   90.37511513
_symmetry_Int_Tables_number   1
_chemical_formula_structural   H7PbC3I4N3O
_chemical_formula_sum   'H28 Pb4 C12 I16 N12 O4'
_cell_volume   1506.82583651
_cell_formula_units_Z   4
loop_
 _symmetry_equiv_pos_site_id
 _symmetry_equiv_pos_as_xyz
  1  'x, y, z'
loop_
 _atom_site_type_symbol
 _atom_site_label
 _atom_site_symmetry_multiplicity
 _atom_site_fract_x
 _atom_site_fract_y
 _atom_site_fract_z
 _atom_site_occupancy
  H  H0  1  0.24603239  0.25565842  0.81267069  1
  H  H1  1  0.18033326  0.16137482  0.72281070  1
  H  H2  1  0.32006073  0.16659447  0.72064446  1
  H  H3  1  0.17498866  0.35699070  0.63301660  1
  H  H4  1  0.32314185  0.35690229  0.62794045  1
  H  H5  1  0.24800793  0.39198538  0.33632050  1
  H  H6  1  0.24867474  0.21534434  0.18750360  1
  H  H7  1  0.25622077  0.74850481  0.81170551  1
  H  H8  1  0.16829795  0.82370001  0.72061428  1
  H  H9  1  0.16231543  0.68252916  0.72181043  1
  H  H10  1  0.35691810  0.82581495  0.62675794  1
  H  H11  1  0.35662529  0.67691872  0.63155726  1
  H  H12  1  0.39170013  0.75015704  0.33498484  1
  H  H13  1  0.21515329  0.75051842  0.18731787  1
  H  H14  1  0.74360424  0.25174173  0.18833525  1
  H  H15  1  0.83746124  0.31763937  0.27837819  1
  H  H16  1  0.83154122  0.17649767  0.27935264  1
  H  H17  1  0.64299573  0.32301506  0.36840181  1
  H  H18  1  0.64295103  0.17411489  0.37323790  1
  H  H19  1  0.60795975  0.24965315  0.66499088  1
  H  H20  1  0.78456548  0.24948217  0.81270640  1
  H  H21  1  0.75406734  0.74431927  0.18720974  1
  H  H22  1  0.67997128  0.83338008  0.27920961  1
  H  H23  1  0.81969268  0.83861475  0.27706888  1
  H  H24  1  0.67671916  0.64322910  0.37199693  1
  H  H25  1  0.82487526  0.64288426  0.36682906  1
  H  H26  1  0.75199089  0.60803627  0.66351493  1
  H  H27  1  0.75152417  0.78477048  0.81232084  1
  Pb  Pb28  1  0.00087897  0.99940725  0.99998110  1
  Pb  Pb29  1  0.00025703  0.49887294  0.99967571  1
  Pb  Pb30  1  0.50094640  0.00033167  1.00059546  1
  Pb  Pb31  1  0.50052600  0.50113139  1.00001908  1
  C  C32  1  0.24868037  0.30347870  0.61961057  1
  C  C33  1  0.24898025  0.25173374  0.49188365  1
  C  C34  1  0.24783076  0.30477959  0.36792196  1
  C  C35  1  0.30375974  0.75112044  0.61859506  1
  C  C36  1  0.25190829  0.75128785  0.49120690  1
  C  C37  1  0.30461403  0.74999736  0.36687767  1
  C  C38  1  0.69597062  0.24890319  0.38140375  1
  C  C39  1  0.74779818  0.24883259  0.50881386  1
  C  C40  1  0.69504765  0.25005190  0.63312631  1
  C  C41  1  0.75128657  0.69651980  0.38026640  1
  C  C42  1  0.75110355  0.74828874  0.50795835  1
  C  C43  1  0.75223468  0.69522931  0.63191840  1
  I  I44  1  0.25053694  0.07217532  0.02461596  1
  I  I45  1  0.25033095  0.40740496  0.99399936  1
  I  I46  1  0.75058429  0.92744901  0.97531884  1
  I  I47  1  0.75045112  0.59226282  0.00619060  1
  I  I48  1  0.92648659  0.24951548  0.97740736  1
  I  I49  1  0.07241938  0.74906382  0.02293380  1
  I  I50  1  0.59215054  0.25096766  0.01388296  1
  I  I51  1  0.40678980  0.74991717  0.98677699  1
  I  I52  1  0.04848636  0.99426209  0.69598104  1
  I  I53  1  0.95148564  0.00606301  0.30369034  1
  I  I54  1  0.01542351  0.53265523  0.69301564  1
  I  I55  1  0.98463690  0.46707059  0.30676363  1
  I  I56  1  0.47951757  0.03630862  0.69409901  1
  I  I57  1  0.52074045  0.96339449  0.30677911  1
  I  I58  1  0.51922276  0.49403896  0.69092411  1
  I  I59  1  0.48099330  0.50640802  0.30905514  1
  N  N60  1  0.24826665  0.21691676  0.72474928  1
  N  N61  1  0.24896865  0.22338585  0.28754750  1
  N  N62  1  0.25071654  0.14234872  0.47961716  1
  N  N63  1  0.21737651  0.75112428  0.72401576  1
  N  N64  1  0.22325882  0.75107888  0.28711311  1
  N  N65  1  0.14280607  0.75277331  0.47989021  1
  N  N66  1  0.78240855  0.24904249  0.27604306  1
  N  N67  1  0.77637479  0.24911949  0.71288357  1
  N  N68  1  0.85688782  0.24751455  0.52015784  1
  N  N69  1  0.75177260  0.78306126  0.27510848  1
  N  N70  1  0.75114033  0.77664604  0.71228315  1
  N  N71  1  0.74941894  0.85767288  0.52021184  1
  O  O72  1  0.25055115  0.12150561  0.35327764  1
  O  O73  1  0.12164630  0.75244270  0.35377303  1
  O  O74  1  0.87800957  0.24788816  0.64628624  1
  O  O75  1  0.74958898  0.87852206  0.64654578  1
