# generated using pymatgen
data_H22PbC20(I2N)2
_symmetry_space_group_name_H-M   'P 1'
_cell_length_a   12.48514391
_cell_length_b   12.47901201
_cell_length_c   21.37128513
_cell_angle_alpha   89.90490407
_cell_angle_beta   89.86104740
_cell_angle_gamma   89.73906369
_symmetry_Int_Tables_number   1
_chemical_formula_structural   H22PbC20(I2N)2
_chemical_formula_sum   'H88 Pb4 C80 I16 N8'
_cell_volume   3329.64569409
_cell_formula_units_Z   4
loop_
 _symmetry_equiv_pos_site_id
 _symmetry_equiv_pos_as_xyz
  1  'x, y, z'
loop_
 _atom_site_type_symbol
 _atom_site_label
 _atom_site_symmetry_multiplicity
 _atom_site_fract_x
 _atom_site_fract_y
 _atom_site_fract_z
 _atom_site_occupancy
  H  H0  1  0.23830941  0.31718671  0.90074444  1
  H  H1  1  0.26973159  0.18672287  0.90247710  1
  H  H2  1  0.36504473  0.27940713  0.90554638  1
  H  H3  1  0.36389601  0.20221324  0.80279980  1
  H  H4  1  0.33204994  0.34202521  0.80217540  1
  H  H5  1  0.13531688  0.29704666  0.79888810  1
  H  H6  1  0.16717140  0.15813279  0.79923133  1
  H  H7  1  0.25011561  0.07251054  0.70542968  1
  H  H8  1  0.26996191  0.07690416  0.59023107  1
  H  H9  1  0.34592861  0.38449459  0.51007176  1
  H  H10  1  0.36018213  0.38922848  0.39430536  1
  H  H11  1  0.22440219  0.42357304  0.30297660  1
  H  H12  1  0.23620080  0.42675942  0.18698475  1
  H  H13  1  0.27420958  0.18997750  0.09081290  1
  H  H14  1  0.24428646  0.32088994  0.09204686  1
  H  H15  1  0.36979741  0.28200667  0.10085182  1
  H  H16  1  0.31787354  0.09063504  0.18663684  1
  H  H17  1  0.30567377  0.08718600  0.30262201  1
  H  H18  1  0.15266767  0.11569353  0.38223517  1
  H  H19  1  0.13781932  0.11132974  0.49797825  1
  H  H20  1  0.18905471  0.41281340  0.58960234  1
  H  H21  1  0.16712558  0.40785401  0.70498401  1
  H  H22  1  0.31532541  0.75952923  0.90143681  1
  H  H23  1  0.18448156  0.73045449  0.90089442  1
  H  H24  1  0.27609009  0.63356770  0.90539390  1
  H  H25  1  0.20388584  0.63552145  0.80204407  1
  H  H26  1  0.34324236  0.66736900  0.80276281  1
  H  H27  1  0.29693088  0.86418256  0.79857257  1
  H  H28  1  0.15861667  0.83281329  0.79877060  1
  H  H29  1  0.07340372  0.75016021  0.70557287  1
  H  H30  1  0.07769812  0.73058653  0.59014757  1
  H  H31  1  0.38555607  0.65398088  0.51015884  1
  H  H32  1  0.39045344  0.63961822  0.39441166  1
  H  H33  1  0.42357294  0.77489214  0.30240099  1
  H  H34  1  0.42630111  0.76343103  0.18625935  1
  H  H35  1  0.18815411  0.72660681  0.09138704  1
  H  H36  1  0.31945224  0.75447507  0.09082477  1
  H  H37  1  0.27957074  0.62988918  0.10044144  1
  H  H38  1  0.09122189  0.68152982  0.18699735  1
  H  H39  1  0.08796974  0.69418348  0.30298922  1
  H  H40  1  0.11540091  0.84760694  0.38197407  1
  H  H41  1  0.11086862  0.86233476  0.49768251  1
  H  H42  1  0.41292978  0.81060938  0.58915400  1
  H  H43  1  0.40789616  0.83234550  0.70458604  1
  H  H44  1  0.68326735  0.26077568  0.09927455  1
  H  H45  1  0.81338601  0.22845616  0.09787897  1
  H  H46  1  0.71985730  0.13343317  0.09554122  1
  H  H47  1  0.79687594  0.13538903  0.19767785  1
  H  H48  1  0.65745057  0.16773092  0.19811549  1
  H  H49  1  0.70288242  0.36453671  0.20115366  1
  H  H50  1  0.84144461  0.33242834  0.20102343  1
  H  H51  1  0.92667059  0.24967751  0.29438557  1
  H  H52  1  0.92255355  0.23025093  0.40986576  1
  H  H53  1  0.61538148  0.15437601  0.49013565  1
  H  H54  1  0.61124647  0.13962805  0.60587505  1
  H  H55  1  0.57747003  0.27565395  0.69713499  1
  H  H56  1  0.57419509  0.26374887  0.81329522  1
  H  H57  1  0.80998159  0.22467366  0.90953958  1
  H  H58  1  0.67923248  0.25493787  0.90821381  1
  H  H59  1  0.71777232  0.12926523  0.89918418  1
  H  H60  1  0.90962568  0.18060525  0.81350144  1
  H  H61  1  0.91353973  0.19403523  0.69749351  1
  H  H62  1  0.88516914  0.34678092  0.61768545  1
  H  H63  1  0.88892577  0.36194674  0.50199581  1
  H  H64  1  0.58673285  0.31058931  0.41065343  1
  H  H65  1  0.59152847  0.33211350  0.29518168  1
  H  H66  1  0.74137369  0.68472824  0.09809789  1
  H  H67  1  0.77022967  0.81574307  0.09893729  1
  H  H68  1  0.86715563  0.72423231  0.09417042  1
  H  H69  1  0.86473101  0.79631805  0.19779983  1
  H  H70  1  0.83334988  0.65649639  0.19677000  1
  H  H71  1  0.63672767  0.70192518  0.20124065  1
  H  H72  1  0.66742057  0.84070632  0.20105658  1
  H  H73  1  0.75042412  0.92592452  0.29432090  1
  H  H74  1  0.76971612  0.92181996  0.40969762  1
  H  H75  1  0.84624965  0.61460932  0.48983363  1
  H  H76  1  0.86078089  0.61032854  0.60558301  1
  H  H77  1  0.72498317  0.57714911  0.69742636  1
  H  H78  1  0.73767239  0.57389348  0.81343722  1
  H  H79  1  0.77495719  0.81186004  0.90860330  1
  H  H80  1  0.74686102  0.68063345  0.90890746  1
  H  H81  1  0.87154104  0.72007501  0.89838545  1
  H  H82  1  0.81833891  0.90961882  0.81294162  1
  H  H83  1  0.80548950  0.91299709  0.69704595  1
  H  H84  1  0.65239519  0.88504999  0.61793071  1
  H  H85  1  0.63734057  0.88898625  0.50221261  1
  H  H86  1  0.68935360  0.58647448  0.41064201  1
  H  H87  1  0.66794020  0.59124991  0.29544265  1
  Pb  Pb88  1  0.00498868  0.00149348  0.00514439  1
  Pb  Pb89  1  0.99611813  0.49343395  0.99727526  1
  Pb  Pb90  1  0.49776179  0.99818315  0.99700121  1
  Pb  Pb91  1  0.50306460  0.50484139  0.00053284  1
  C  C92  1  0.30237802  0.26210168  0.81463268  1
  C  C93  1  0.19540391  0.23739236  0.78374894  1
  C  C94  1  0.20689115  0.23987294  0.71339946  1
  C  C95  1  0.23607667  0.14740389  0.68017507  1
  C  C96  1  0.24708209  0.14974061  0.61521882  1
  C  C97  1  0.23086364  0.24521523  0.58152536  1
  C  C98  1  0.24080409  0.24759428  0.51244097  1
  C  C99  1  0.30219762  0.32628437  0.48205452  1
  C  C100  1  0.31026409  0.32893631  0.41701683  1
  C  C101  1  0.25731339  0.25278911  0.38008424  1
  C  C102  1  0.26473982  0.25523884  0.31099762  1
  C  C103  1  0.24603595  0.35073836  0.27777002  1
  C  C104  1  0.25231714  0.35308718  0.21272947  1
  C  C105  1  0.27790125  0.25893291  0.18130956  1
  C  C106  1  0.29586573  0.16276535  0.21242265  1
  C  C107  1  0.28916033  0.16149008  0.27745671  1
  C  C108  1  0.19629173  0.17382900  0.41037877  1
  C  C109  1  0.18808757  0.17136274  0.47537372  1
  C  C110  1  0.20340153  0.33822097  0.61504041  1
  C  C111  1  0.19098505  0.33533926  0.67989559  1
  C  C112  1  0.26277310  0.69702223  0.81438229  1
  C  C113  1  0.23791887  0.80419246  0.78336432  1
  C  C114  1  0.24035451  0.79302279  0.71310352  1
  C  C115  1  0.14800372  0.76408995  0.68006677  1
  C  C116  1  0.15030510  0.75321213  0.61514294  1
  C  C117  1  0.24560394  0.76930217  0.58133545  1
  C  C118  1  0.24791234  0.75923507  0.51229162  1
  C  C119  1  0.32701192  0.69769358  0.48202936  1
  C  C120  1  0.32976613  0.68957924  0.41700919  1
  C  C121  1  0.25324176  0.74264405  0.38000238  1
  C  C122  1  0.25564852  0.73507120  0.31090788  1
  C  C123  1  0.35077112  0.75358654  0.27733642  1
  C  C124  1  0.35288806  0.74730872  0.21223366  1
  C  C125  1  0.25873514  0.72192297  0.18111829  1
  C  C126  1  0.16305434  0.70396870  0.21262212  1
  C  C127  1  0.16200803  0.71059378  0.27763707  1
  C  C128  1  0.17380306  0.80379133  0.41017057  1
  C  C129  1  0.17127763  0.81201642  0.47514320  1
  C  C130  1  0.33843556  0.79660964  0.61467235  1
  C  C131  1  0.33556409  0.80892170  0.67950621  1
  C  C132  1  0.73741511  0.19720303  0.18573964  1
  C  C133  1  0.76219459  0.30427950  0.21642259  1
  C  C134  1  0.75956019  0.29299637  0.28673892  1
  C  C135  1  0.85202324  0.26384875  0.31987421  1
  C  C136  1  0.84979448  0.25301857  0.38482498  1
  C  C137  1  0.75441145  0.26934054  0.41859695  1
  C  C138  1  0.75232391  0.25935688  0.48767221  1
  C  C139  1  0.67375284  0.19793734  0.51812138  1
  C  C140  1  0.67140161  0.18967279  0.58315756  1
  C  C141  1  0.74780705  0.24245904  0.61998920  1
  C  C142  1  0.74553278  0.23498235  0.68909681  1
  C  C143  1  0.65015108  0.25390464  0.72239812  1
  C  C144  1  0.64769208  0.24744646  0.78743008  1
  C  C145  1  0.74158800  0.22144652  0.81888423  1
  C  C146  1  0.83768472  0.20323493  0.78771782  1
  C  C147  1  0.83914099  0.21027481  0.72265559  1
  C  C148  1  0.82673003  0.30340933  0.58963591  1
  C  C149  1  0.82883545  0.31181067  0.52464626  1
  C  C150  1  0.66135657  0.29660093  0.38516596  1
  C  C151  1  0.66415414  0.30885468  0.32028830  1
  C  C152  1  0.80362436  0.73706924  0.18531856  1
  C  C153  1  0.69628520  0.76141085  0.21642899  1
  C  C154  1  0.70719247  0.75899367  0.28674839  1
  C  C155  1  0.73609409  0.85140211  0.31980663  1
  C  C156  1  0.74682322  0.84922547  0.38473828  1
  C  C157  1  0.73059061  0.75398765  0.41857429  1
  C  C158  1  0.74060153  0.75196003  0.48763081  1
  C  C159  1  0.80235689  0.67312951  0.51793501  1
  C  C160  1  0.81057186  0.67075127  0.58295507  1
  C  C161  1  0.75737968  0.74729927  0.61995614  1
  C  C162  1  0.76484197  0.74510349  0.68903789  1
  C  C163  1  0.74647809  0.64988586  0.72252888  1
  C  C164  1  0.75304169  0.64760212  0.78758392  1
  C  C165  1  0.77834035  0.74185688  0.81869137  1
  C  C166  1  0.79591015  0.83774848  0.78730953  1
  C  C167  1  0.78909415  0.83885992  0.72231886  1
  C  C168  1  0.69611319  0.82651636  0.58972067  1
  C  C169  1  0.68778555  0.82872715  0.52475160  1
  C  C170  1  0.70340493  0.66105390  0.38522859  1
  C  C171  1  0.69123299  0.66381583  0.32038105  1
  I  I172  1  0.25075782  0.06037536  0.00275853  1
  I  I173  1  0.24781715  0.46466197  0.00073307  1
  I  I174  1  0.75105863  0.95177706  0.99559233  1
  I  I175  1  0.74706696  0.54624292  0.00044012  1
  I  I176  1  0.93958812  0.24812018  0.99800210  1
  I  I177  1  0.04703108  0.74758392  0.00305840  1
  I  I178  1  0.53631018  0.25409742  0.00068406  1
  I  I179  1  0.45347085  0.75407691  0.99865339  1
  I  I180  1  0.02234882  0.99244131  0.85765863  1
  I  I181  1  0.98736339  0.99618426  0.15266194  1
  I  I182  1  0.00866539  0.50907312  0.84897791  1
  I  I183  1  0.99041006  0.48957618  0.14484703  1
  I  I184  1  0.50048985  0.00536953  0.84927239  1
  I  I185  1  0.52049904  0.99618366  0.14478586  1
  I  I186  1  0.49262173  0.49707023  0.85274126  1
  I  I187  1  0.49751271  0.49478123  0.14899914  1
  N  N188  1  0.29270532  0.26080506  0.88468338  1
  N  N189  1  0.29167136  0.26257274  0.11305911  1
  N  N190  1  0.25893588  0.70641387  0.88437460  1
  N  N191  1  0.26105098  0.70829093  0.11279610  1
  N  N192  1  0.73914824  0.20617901  0.11567583  1
  N  N193  1  0.73751230  0.20743445  0.88716440  1
  N  N194  1  0.79433211  0.74117147  0.11529129  1
  N  N195  1  0.79297578  0.73904616  0.88690298  1
