# generated using pymatgen
data_H26PbC22(I2N)2
_symmetry_space_group_name_H-M   'P 1'
_cell_length_a   12.10234750
_cell_length_b   12.04258803
_cell_length_c   24.02652459
_cell_angle_alpha   88.74368839
_cell_angle_beta   89.23354660
_cell_angle_gamma   90.56992465
_symmetry_Int_Tables_number   1
_chemical_formula_structural   H26PbC22(I2N)2
_chemical_formula_sum   'H104 Pb4 C88 I16 N8'
_cell_volume   3500.37319179
_cell_formula_units_Z   4
loop_
 _symmetry_equiv_pos_site_id
 _symmetry_equiv_pos_as_xyz
  1  'x, y, z'
loop_
 _atom_site_type_symbol
 _atom_site_label
 _atom_site_symmetry_multiplicity
 _atom_site_fract_x
 _atom_site_fract_y
 _atom_site_fract_z
 _atom_site_occupancy
  H  H0  1  0.17423370  0.18727756  0.90750149  1
  H  H1  1  0.26333764  0.29345252  0.90944289  1
  H  H2  1  0.30757944  0.16487159  0.89323178  1
  H  H3  1  0.19336222  0.16412502  0.81100035  1
  H  H4  1  0.15909925  0.30502405  0.82367641  1
  H  H5  1  0.39780761  0.22420516  0.81046950  1
  H  H6  1  0.35483325  0.36435956  0.81000733  1
  H  H7  1  0.27871675  0.44854943  0.72415563  1
  H  H8  1  0.24900036  0.43755571  0.62313129  1
  H  H9  1  0.17084642  0.10294141  0.56318409  1
  H  H10  1  0.14212479  0.09348824  0.46183754  1
  H  H11  1  0.17627933  0.41189602  0.36974182  1
  H  H12  1  0.14665531  0.40038291  0.26825869  1
  H  H13  1  0.14515150  0.13564893  0.18999379  1
  H  H14  1  0.10219374  0.27580866  0.18953371  1
  H  H15  1  0.30664578  0.33586469  0.18899470  1
  H  H16  1  0.34089045  0.19496235  0.17631641  1
  H  H17  1  0.19240900  0.33512925  0.10676902  1
  H  H18  1  0.32575308  0.31272227  0.09249413  1
  H  H19  1  0.23664772  0.20654839  0.09055269  1
  H  H20  1  0.22128878  0.05145277  0.27584076  1
  H  H21  1  0.25101086  0.06243860  0.37686527  1
  H  H22  1  0.32917009  0.39704934  0.43681569  1
  H  H23  1  0.35789118  0.40650205  0.53816272  1
  H  H24  1  0.32373143  0.08809775  0.63026211  1
  H  H25  1  0.35334995  0.09962001  0.73174595  1
  H  H26  1  0.18561722  0.82470929  0.90467853  1
  H  H27  1  0.29226436  0.73794893  0.90969101  1
  H  H28  1  0.16424063  0.69003577  0.89433404  1
  H  H29  1  0.16281299  0.80292172  0.80939124  1
  H  H30  1  0.30304847  0.83998121  0.82152828  1
  H  H31  1  0.22048850  0.59868762  0.81264074  1
  H  H32  1  0.36076679  0.64310614  0.81244387  1
  H  H33  1  0.44646888  0.72062819  0.72586624  1
  H  H34  1  0.43703083  0.75073869  0.62421804  1
  H  H35  1  0.10470143  0.82771891  0.56137499  1
  H  H36  1  0.09471710  0.85637948  0.45946221  1
  H  H37  1  0.41200774  0.82471156  0.36960621  1
  H  H38  1  0.40196381  0.85513413  0.26751971  1
  H  H39  1  0.13923900  0.85692295  0.18755939  1
  H  H40  1  0.27952428  0.90131950  0.18736685  1
  H  H41  1  0.33716950  0.69707722  0.19060744  1
  H  H42  1  0.19692926  0.66003937  0.17846683  1
  H  H43  1  0.33575224  0.80998727  0.10566943  1
  H  H44  1  0.31437831  0.67531590  0.09531982  1
  H  H45  1  0.20772972  0.76207417  0.09030770  1
  H  H46  1  0.05352887  0.77937039  0.27413237  1
  H  H47  1  0.06295623  0.74924941  0.37577886  1
  H  H48  1  0.39528156  0.67226728  0.43862686  1
  H  H49  1  0.40526584  0.64360578  0.54054130  1
  H  H50  1  0.08797966  0.67527873  0.63040263  1
  H  H51  1  0.09803375  0.64486661  0.73248828  1
  H  H52  1  0.81320072  0.32506349  0.09004503  1
  H  H53  1  0.70474341  0.23923914  0.09032920  1
  H  H54  1  0.83150004  0.18987255  0.10494910  1
  H  H55  1  0.84116811  0.30799529  0.18669876  1
  H  H56  1  0.70041751  0.34362858  0.17510728  1
  H  H57  1  0.78016504  0.10339015  0.19010616  1
  H  H58  1  0.64097829  0.14661699  0.18973089  1
  H  H59  1  0.55662056  0.22199268  0.27427894  1
  H  H60  1  0.56649857  0.25006742  0.37581965  1
  H  H61  1  0.89834536  0.32908240  0.43814713  1
  H  H62  1  0.90472207  0.35815786  0.53947694  1
  H  H63  1  0.58495905  0.32092540  0.62943028  1
  H  H64  1  0.59530943  0.34893742  0.73072091  1
  H  H65  1  0.85902174  0.35338990  0.81027284  1
  H  H66  1  0.71983445  0.39661592  0.80989253  1
  H  H67  1  0.65883988  0.19200170  0.81329603  1
  H  H68  1  0.79958881  0.15638309  0.82490377  1
  H  H69  1  0.66847007  0.31014409  0.89504232  1
  H  H70  1  0.68676046  0.17495504  0.90995259  1
  H  H71  1  0.79522067  0.26077528  0.90967721  1
  H  H72  1  0.94339021  0.27800717  0.72572750  1
  H  H73  1  0.93352193  0.24992832  0.62418570  1
  H  H74  1  0.60167854  0.17091115  0.56185456  1
  H  H75  1  0.59530249  0.14183503  0.46052486  1
  H  H76  1  0.91506328  0.17907532  0.37056781  1
  H  H77  1  0.90470212  0.15106625  0.26927537  1
  H  H78  1  0.67378906  0.81889091  0.09475599  1
  H  H79  1  0.76200953  0.71249858  0.08948166  1
  H  H80  1  0.80828647  0.84186600  0.10468693  1
  H  H81  1  0.69529327  0.83958592  0.18954848  1
  H  H82  1  0.66207887  0.69817548  0.17722944  1
  H  H83  1  0.89999261  0.78680250  0.18759672  1
  H  H84  1  0.85929939  0.64492888  0.18773751  1
  H  H85  1  0.78191406  0.55622568  0.27399644  1
  H  H86  1  0.75135365  0.56447160  0.37581818  1
  H  H87  1  0.67159074  0.89683988  0.43851754  1
  H  H88  1  0.64263842  0.90416936  0.54017929  1
  H  H89  1  0.67927904  0.58348657  0.63093028  1
  H  H90  1  0.64936024  0.59216475  0.73249401  1
  H  H91  1  0.64069269  0.85506065  0.81226545  1
  H  H92  1  0.60000863  0.71318474  0.81240074  1
  H  H93  1  0.80471777  0.66042077  0.81044779  1
  H  H94  1  0.83791311  0.80183056  0.82277900  1
  H  H95  1  0.69170823  0.65810651  0.89530602  1
  H  H96  1  0.82620285  0.68108807  0.90524415  1
  H  H97  1  0.73797452  0.78747239  0.91052155  1
  H  H98  1  0.71809054  0.94377676  0.72600918  1
  H  H99  1  0.74865940  0.93554149  0.62418764  1
  H  H100  1  0.82842757  0.60317846  0.56148344  1
  H  H101  1  0.85737751  0.59584928  0.45982276  1
  H  H102  1  0.82072982  0.91652650  0.36906600  1
  H  H103  1  0.85064060  0.90783855  0.26750203  1
  Pb  Pb104  1  0.98668453  0.99955395  0.99095872  1
  Pb  Pb105  1  0.01775411  0.50336596  0.00021330  1
  Pb  Pb106  1  0.48226137  0.99660982  0.99977478  1
  Pb  Pb107  1  0.51331548  0.50044056  0.00902610  1
  C  C108  1  0.22445782  0.24274469  0.82727974  1
  C  C109  1  0.33119913  0.28023871  0.79740456  1
  C  C110  1  0.31767704  0.27496741  0.73523803  1
  C  C111  1  0.28904420  0.36923324  0.70371897  1
  C  C112  1  0.27287419  0.36309507  0.64652112  1
  C  C113  1  0.28400451  0.26189967  0.61903766  1
  C  C114  1  0.26661337  0.25552826  0.55834076  1
  C  C115  1  0.20712346  0.16696973  0.53553396  1
  C  C116  1  0.19087257  0.16160600  0.47838488  1
  C  C117  1  0.23340270  0.24446392  0.44165882  1
  C  C118  1  0.21600686  0.23809392  0.38096253  1
  C  C119  1  0.18742173  0.33281191  0.34915150  1
  C  C120  1  0.17048727  0.32621435  0.29205977  1
  C  C121  1  0.18232732  0.22503569  0.26476203  1
  C  C122  1  0.16879711  0.21976628  0.20259604  1
  C  C123  1  0.27553896  0.25724862  0.17271628  1
  C  C124  1  0.21096225  0.13076708  0.29627922  1
  C  C125  1  0.22713580  0.13690049  0.35347685  1
  C  C126  1  0.29289309  0.33301935  0.46446561  1
  C  C127  1  0.30914381  0.33838393  0.52161564  1
  C  C128  1  0.31258805  0.16718391  0.65085165  1
  C  C129  1  0.32951896  0.17378569  0.70794267  1
  C  C130  1  0.24103902  0.77315083  0.82645156  1
  C  C131  1  0.27737477  0.66614442  0.79891785  1
  C  C132  1  0.27307282  0.68080107  0.73647331  1
  C  C133  1  0.36755105  0.71027552  0.70510079  1
  C  C134  1  0.36226613  0.72687841  0.64758962  1
  C  C135  1  0.26161201  0.71569105  0.61964640  1
  C  C136  1  0.25568083  0.73333496  0.55863581  1
  C  C137  1  0.16790532  0.79206449  0.53451693  1
  C  C138  1  0.16233679  0.80834219  0.47706428  1
  C  C139  1  0.24430517  0.76664826  0.44136648  1
  C  C140  1  0.23837512  0.78429869  0.38035650  1
  C  C141  1  0.33335263  0.81339323  0.34866418  1
  C  C142  1  0.32759327  0.83086526  0.29126516  1
  C  C143  1  0.22692599  0.81920170  0.26353011  1
  C  C144  1  0.22262734  0.83386900  0.20108574  1
  C  C145  1  0.25894804  0.72686275  0.17354727  1
  C  C146  1  0.13244247  0.78972179  0.29489917  1
  C  C147  1  0.13772209  0.77311297  0.35241050  1
  C  C148  1  0.33207476  0.70792267  0.46548490  1
  C  C149  1  0.33764285  0.69164425  0.52293874  1
  C  C150  1  0.16663556  0.68659858  0.65134131  1
  C  C151  1  0.17240080  0.66913253  0.70874078  1
  C  C152  1  0.76165535  0.27733593  0.17145482  1
  C  C153  1  0.72471156  0.17075508  0.20242015  1
  C  C154  1  0.72968941  0.18483332  0.26450062  1
  C  C155  1  0.63532112  0.21212873  0.29544224  1
  C  C156  1  0.64079645  0.22731208  0.35268686  1
  C  C157  1  0.74131118  0.21653602  0.38088495  1
  C  C158  1  0.74626375  0.23324990  0.44164272  1
  C  C159  1  0.83374974  0.29288982  0.46523063  1
  C  C160  1  0.83730234  0.30930720  0.52238191  1
  C  C161  1  0.75376040  0.26674595  0.55835862  1
  C  C162  1  0.75871168  0.28346119  0.61911672  1
  C  C163  1  0.66382474  0.31042783  0.65033630  1
  C  C164  1  0.66979972  0.32640414  0.70751414  1
  C  C165  1  0.77032244  0.31516877  0.73550103  1
  C  C166  1  0.77529120  0.32925054  0.79758145  1
  C  C167  1  0.73834365  0.22267078  0.82854712  1
  C  C168  1  0.86469174  0.28787143  0.70456246  1
  C  C169  1  0.85922019  0.27268620  0.64731701  1
  C  C170  1  0.66627263  0.20710358  0.53477095  1
  C  C171  1  0.66271987  0.19068554  0.47762039  1
  C  C172  1  0.83619308  0.18957249  0.34966385  1
  C  C173  1  0.83021308  0.17359819  0.29248467  1
  C  C174  1  0.72708800  0.76215680  0.17257726  1
  C  C175  1  0.83406675  0.72793721  0.20096608  1
  C  C176  1  0.81877630  0.73117528  0.26339412  1
  C  C177  1  0.79109947  0.63536775  0.29486244  1
  C  C178  1  0.77438422  0.63998012  0.35233044  1
  C  C179  1  0.78396331  0.74094842  0.38028079  1
  C  C180  1  0.76663871  0.74570282  0.44132153  1
  C  C181  1  0.70753047  0.83286851  0.46539105  1
  C  C182  1  0.69120145  0.83704336  0.52281014  1
  C  C183  1  0.73337532  0.75431677  0.55867957  1
  C  C184  1  0.71604960  0.75906527  0.61972081  1
  C  C185  1  0.68912956  0.66278090  0.65152839  1
  C  C186  1  0.67190774  0.66782347  0.70888030  1
  C  C187  1  0.68122695  0.76882788  0.73660641  1
  C  C188  1  0.66593179  0.77205716  0.79903449  1
  C  C189  1  0.77291114  0.73784019  0.82742417  1
  C  C190  1  0.70890679  0.86463646  0.70514167  1
  C  C191  1  0.72562670  0.86002884  0.64767283  1
  C  C192  1  0.79248715  0.66714773  0.53460971  1
  C  C193  1  0.80881651  0.66297241  0.47719194  1
  C  C194  1  0.81087858  0.83722833  0.34847000  1
  C  C195  1  0.82809597  0.83218047  0.29111764  1
  I  I196  1  0.23478727  0.06456770  0.01801041  1
  I  I197  1  0.26521267  0.43540514  0.98198518  1
  I  I198  1  0.73494939  0.94106606  0.97672064  1
  I  I199  1  0.76505774  0.55890422  0.02327316  1
  I  I200  1  0.93962138  0.25611050  0.98110760  1
  I  I201  1  0.06654683  0.75600386  0.01658033  1
  I  I202  1  0.56034604  0.24386973  0.01888874  1
  I  I203  1  0.43339851  0.74397948  0.98343115  1
  I  I204  1  0.02105923  0.99253766  0.86062456  1
  I  I205  1  0.94895128  0.00832811  0.12507497  1
  I  I206  1  0.00311500  0.54612095  0.86840603  1
  I  I207  1  0.03350211  0.47394052  0.13241894  1
  I  I208  1  0.46650933  0.02605749  0.86756888  1
  I  I209  1  0.49689654  0.95387994  0.13158520  1
  I  I210  1  0.55099919  0.49166337  0.87491139  1
  I  I211  1  0.47893160  0.50746578  0.13935727  1
  N  N212  1  0.24349299  0.22150664  0.88801746  1
  N  N213  1  0.25649572  0.27849123  0.11197934  1
  N  N214  1  0.22054512  0.75512840  0.88753429  1
  N  N215  1  0.27944685  0.74489372  0.11246568  1
  N  N216  1  0.77860246  0.25678168  0.11063233  1
  N  N217  1  0.72136941  0.24323347  0.88936696  1
  N  N218  1  0.74437587  0.78426875  0.11148487  1
  N  N219  1  0.75561628  0.71570819  0.88851442  1
