# generated using pymatgen
data_H22PbC15S(I2N)2
_symmetry_space_group_name_H-M   'P 1'
_cell_length_a   12.76008910
_cell_length_b   12.46579583
_cell_length_c   18.72820391
_cell_angle_alpha   90.94066163
_cell_angle_beta   89.61252915
_cell_angle_gamma   90.54661945
_symmetry_Int_Tables_number   1
_chemical_formula_structural   H22PbC15S(I2N)2
_chemical_formula_sum   'H88 Pb4 C60 S4 I16 N8'
_cell_volume   2978.39345819
_cell_formula_units_Z   4
loop_
 _symmetry_equiv_pos_site_id
 _symmetry_equiv_pos_as_xyz
  1  'x, y, z'
loop_
 _atom_site_type_symbol
 _atom_site_label
 _atom_site_symmetry_multiplicity
 _atom_site_fract_x
 _atom_site_fract_y
 _atom_site_fract_z
 _atom_site_occupancy
  H  H0  1  0.34272823  0.19241649  0.89658060  1
  H  H1  1  0.36985550  0.27509639  0.82964634  1
  H  H2  1  0.24956965  0.27068305  0.86256696  1
  H  H3  1  0.21489215  0.09206046  0.82378354  1
  H  H4  1  0.34810828  0.07694179  0.79817226  1
  H  H5  1  0.19830806  0.23664724  0.72927637  1
  H  H6  1  0.21726995  0.10498324  0.69677766  1
  H  H7  1  0.40245472  0.14012436  0.66855096  1
  H  H8  1  0.40034359  0.26625200  0.71297987  1
  H  H9  1  0.32900520  0.13771417  0.53181190  1
  H  H10  1  0.19976558  0.10537612  0.43024234  1
  H  H11  1  0.15593860  0.08019383  0.30277941  1
  H  H12  1  0.09323668  0.18459274  0.18813819  1
  H  H13  1  0.15295338  0.31033401  0.17205472  1
  H  H14  1  0.26218836  0.09120977  0.17813463  1
  H  H15  1  0.23612269  0.16333399  0.09932357  1
  H  H16  1  0.36154269  0.29768266  0.13482455  1
  H  H17  1  0.36403879  0.25366295  0.21791875  1
  H  H18  1  0.41743207  0.17911136  0.15290649  1
  H  H19  1  0.23199740  0.41204112  0.26516047  1
  H  H20  1  0.27985299  0.43655291  0.39201021  1
  H  H21  1  0.20867370  0.46216186  0.50684690  1
  H  H22  1  0.19115189  0.63677192  0.89969886  1
  H  H23  1  0.26867482  0.60808275  0.83087870  1
  H  H24  1  0.27507820  0.72876726  0.87106653  1
  H  H25  1  0.10448699  0.77958466  0.83508570  1
  H  H26  1  0.08033009  0.64587227  0.80309819  1
  H  H27  1  0.24283077  0.80123192  0.73814709  1
  H  H28  1  0.11373649  0.78637028  0.70796509  1
  H  H29  1  0.14120217  0.59815787  0.67145001  1
  H  H30  1  0.26398128  0.59448248  0.71315147  1
  H  H31  1  0.14253450  0.67306350  0.53620170  1
  H  H32  1  0.11658879  0.80301648  0.43114423  1
  H  H33  1  0.10041962  0.84402012  0.30286888  1
  H  H34  1  0.21961018  0.91119961  0.19111415  1
  H  H35  1  0.33354972  0.83530719  0.17430230  1
  H  H36  1  0.10546060  0.75141392  0.17994269  1
  H  H37  1  0.18021376  0.77047788  0.10114471  1
  H  H38  1  0.28686118  0.62269040  0.13007407  1
  H  H39  1  0.25106231  0.62711777  0.21534405  1
  H  H40  1  0.16406595  0.58602762  0.15350703  1
  H  H41  1  0.42372051  0.76071548  0.26872805  1
  H  H42  1  0.43932619  0.71597414  0.39623955  1
  H  H43  1  0.46131704  0.79770983  0.50884729  1
  H  H44  1  0.80545746  0.15149666  0.10502429  1
  H  H45  1  0.71976023  0.13802547  0.17197187  1
  H  H46  1  0.74032248  0.25754103  0.13616260  1
  H  H47  1  0.91206748  0.27917543  0.17763098  1
  H  H48  1  0.91557856  0.14200188  0.20161994  1
  H  H49  1  0.76972612  0.30720200  0.27430838  1
  H  H50  1  0.89634635  0.28028208  0.30482142  1
  H  H51  1  0.85256698  0.09449410  0.33203291  1
  H  H52  1  0.73152878  0.09975484  0.28689330  1
  H  H53  1  0.85451233  0.17288781  0.46758532  1
  H  H54  1  0.88869203  0.30449025  0.56817455  1
  H  H55  1  0.91624808  0.34918838  0.69601121  1
  H  H56  1  0.81273703  0.42404412  0.81079179  1
  H  H57  1  0.69266208  0.35930282  0.83067030  1
  H  H58  1  0.91219641  0.25810536  0.82298836  1
  H  H59  1  0.83900303  0.28541899  0.90190214  1
  H  H60  1  0.71274721  0.14716279  0.86585667  1
  H  H61  1  0.76815427  0.13735509  0.78639532  1
  H  H62  1  0.83514441  0.09767363  0.85629565  1
  H  H63  1  0.59141035  0.27899186  0.73991802  1
  H  H64  1  0.56447235  0.23039164  0.61258984  1
  H  H65  1  0.53998783  0.30290806  0.49757373  1
  H  H66  1  0.86413907  0.81291362  0.10355243  1
  H  H67  1  0.87454323  0.71969938  0.16586287  1
  H  H68  1  0.76292028  0.73283660  0.12232190  1
  H  H69  1  0.71913153  0.89975752  0.17194524  1
  H  H70  1  0.84968918  0.91913558  0.20176461  1
  H  H71  1  0.69985701  0.74939665  0.26448307  1
  H  H72  1  0.71143983  0.88145597  0.29770839  1
  H  H73  1  0.89569093  0.85786658  0.33010929  1
  H  H74  1  0.90171605  0.73153407  0.28621189  1
  H  H75  1  0.82663619  0.85626371  0.46597274  1
  H  H76  1  0.69707859  0.88785665  0.56822711  1
  H  H77  1  0.64770747  0.91165373  0.69544750  1
  H  H78  1  0.57518335  0.80550035  0.80638596  1
  H  H79  1  0.63456209  0.68155609  0.82491080  1
  H  H80  1  0.74580699  0.90179058  0.81919669  1
  H  H81  1  0.71031282  0.83361270  0.89850906  1
  H  H82  1  0.83340403  0.70235349  0.87589647  1
  H  H83  1  0.84638242  0.73417462  0.78884123  1
  H  H84  1  0.89554434  0.81742656  0.85110147  1
  H  H85  1  0.71853590  0.58007844  0.73283114  1
  H  H86  1  0.77352787  0.55734996  0.60694155  1
  H  H87  1  0.69934768  0.53229814  0.49210726  1
  Pb  Pb88  1  0.03040526  0.99934111  0.97803946  1
  Pb  Pb89  1  0.00128896  0.48513211  0.99138004  1
  Pb  Pb90  1  0.52339575  0.99518713  0.00265537  1
  Pb  Pb91  1  0.50257241  0.50426375  0.99292355  1
  C  C92  1  0.28217508  0.13283115  0.79926299  1
  C  C93  1  0.25625366  0.17188036  0.72537009  1
  C  C94  1  0.35213281  0.20914740  0.68140359  1
  C  C95  1  0.31854216  0.26182355  0.61417518  1
  C  C96  1  0.30612498  0.21929491  0.54635624  1
  C  C97  1  0.26296375  0.29366143  0.49719780  1
  C  C98  1  0.24110995  0.27374752  0.42109657  1
  C  C99  1  0.20762941  0.17301273  0.39420437  1
  C  C100  1  0.18215325  0.15905972  0.32229853  1
  C  C101  1  0.18889748  0.24525849  0.27489156  1
  C  C102  1  0.16520753  0.23184767  0.19653624  1
  C  C103  1  0.25182168  0.17179819  0.15663906  1
  C  C104  1  0.22444111  0.34474847  0.30150748  1
  C  C105  1  0.25058526  0.35878074  0.37302861  1
  C  C106  1  0.24292399  0.39159569  0.53019985  1
  C  C107  1  0.13897337  0.71087537  0.80659807  1
  C  C108  1  0.17789095  0.74275203  0.73328344  1
  C  C109  1  0.21040342  0.64776531  0.68473015  1
  C  C110  1  0.26251153  0.68529274  0.61767540  1
  C  C111  1  0.22238170  0.69690592  0.55013795  1
  C  C112  1  0.29664046  0.74026722  0.50032960  1
  C  C113  1  0.28040698  0.75910433  0.42380991  1
  C  C114  1  0.18427905  0.79295746  0.39572529  1
  C  C115  1  0.17534645  0.81651859  0.32340470  1
  C  C116  1  0.26194358  0.80722546  0.27684302  1
  C  C117  1  0.25494146  0.83218146  0.19859984  1
  C  C118  1  0.18545547  0.75249959  0.15808559  1
  C  C119  1  0.35639595  0.77030746  0.30445306  1
  C  C120  1  0.36535363  0.74619969  0.37634135  1
  C  C121  1  0.39174699  0.76238394  0.53286462  1
  C  C122  1  0.86658395  0.21402781  0.20190150  1
  C  C123  1  0.82929745  0.24397317  0.27641744  1
  C  C124  1  0.78722366  0.14791675  0.31927336  1
  C  C125  1  0.73437440  0.18460073  0.38677435  1
  C  C126  1  0.77533319  0.19742911  0.45419066  1
  C  C127  1  0.70330744  0.24377939  0.50461810  1
  C  C128  1  0.72377537  0.26561575  0.58072270  1
  C  C129  1  0.82332925  0.29743243  0.60575902  1
  C  C130  1  0.83871684  0.32329640  0.67770519  1
  C  C131  1  0.75515725  0.31860449  0.72688173  1
  C  C132  1  0.76946891  0.34771417  0.80477860  1
  C  C133  1  0.83260141  0.26521049  0.84493764  1
  C  C134  1  0.65682034  0.28404202  0.70224442  1
  C  C135  1  0.64145755  0.25771378  0.63058643  1
  C  C136  1  0.60849109  0.26639494  0.47291043  1
  C  C137  1  0.78533029  0.86034704  0.19734465  1
  C  C138  1  0.75515594  0.81732601  0.26986358  1
  C  C139  1  0.84899094  0.78571890  0.31636691  1
  C  C140  1  0.81322726  0.73251718  0.38350529  1
  C  C141  1  0.80238611  0.77462468  0.45159331  1
  C  C142  1  0.75845644  0.70005871  0.50127282  1
  C  C143  1  0.73698265  0.71990319  0.57762027  1
  C  C144  1  0.70362351  0.82034034  0.60432650  1
  C  C145  1  0.67531093  0.83368635  0.67592872  1
  C  C146  1  0.67872021  0.74714307  0.72306283  1
  C  C147  1  0.64816727  0.76014309  0.80048478  1
  C  C148  1  0.73128955  0.82258392  0.84211834  1
  C  C149  1  0.71547055  0.64830379  0.69703792  1
  C  C150  1  0.74475554  0.63500548  0.62572509  1
  C  C151  1  0.73573310  0.60242156  0.46835098  1
  S  S152  1  0.27674247  0.39322229  0.61811026  1
  S  S153  1  0.39135286  0.72923133  0.62086247  1
  S  S154  1  0.60711145  0.23081080  0.38445412  1
  S  S155  1  0.76812960  0.60119317  0.37978396  1
  I  I156  1  0.26999047  0.99736903  0.97245291  1
  I  I157  1  0.24353980  0.46829550  0.01377039  1
  I  I158  1  0.77093858  0.98973159  0.00856950  1
  I  I159  1  0.74803861  0.56067795  0.97001880  1
  I  I160  1  0.98619974  0.24314718  0.02222137  1
  I  I161  1  0.01790034  0.74454794  0.98329063  1
  I  I162  1  0.51126247  0.24628863  0.00449929  1
  I  I163  1  0.45008460  0.74614456  0.98743505  1
  I  I164  1  0.99621456  0.98983757  0.80340743  1
  I  I165  1  0.02853377  0.97755350  0.14456614  1
  I  I166  1  0.07153256  0.42326359  0.82978406  1
  I  I167  1  0.96760358  0.53150668  0.16895828  1
  I  I168  1  0.54452086  0.03533067  0.83563297  1
  I  I169  1  0.54017876  0.02843973  0.18246653  1
  I  I170  1  0.44331635  0.47852394  0.82045677  1
  I  I171  1  0.47963548  0.50166035  0.16637141  1
  N  N172  1  0.31305258  0.22281845  0.84974547  1
  N  N173  1  0.35462259  0.22953072  0.16538607  1
  N  N174  1  0.22386929  0.66918828  0.85400710  1
  N  N175  1  0.22508260  0.64027365  0.16428200  1
  N  N176  1  0.77775678  0.18901430  0.15144575  1
  N  N177  1  0.78384075  0.15595990  0.83909553  1
  N  N178  1  0.82361235  0.77624168  0.14487207  1
  N  N179  1  0.83385646  0.76472627  0.83966724  1
