# generated using pymatgen
data_H20PbC14I4N2O
_symmetry_space_group_name_H-M   'P 1'
_cell_length_a   12.37858540
_cell_length_b   12.39128377
_cell_length_c   18.72978719
_cell_angle_alpha   89.80623382
_cell_angle_beta   89.93858410
_cell_angle_gamma   88.90291024
_symmetry_Int_Tables_number   1
_chemical_formula_structural   H20PbC14I4N2O
_chemical_formula_sum   'H80 Pb4 C56 I16 N8 O4'
_cell_volume   2872.35318285
_cell_formula_units_Z   4
loop_
 _symmetry_equiv_pos_site_id
 _symmetry_equiv_pos_as_xyz
  1  'x, y, z'
loop_
 _atom_site_type_symbol
 _atom_site_label
 _atom_site_symmetry_multiplicity
 _atom_site_fract_x
 _atom_site_fract_y
 _atom_site_fract_z
 _atom_site_occupancy
  H  H0  1  0.32983028  0.26112751  0.90381314  1
  H  H1  1  0.23496026  0.17055430  0.89020211  1
  H  H2  1  0.20193052  0.30224239  0.88736615  1
  H  H3  1  0.31764939  0.32912885  0.78374939  1
  H  H4  1  0.34802640  0.18788785  0.78488083  1
  H  H5  1  0.15129581  0.14780358  0.76637675  1
  H  H6  1  0.11944607  0.28802336  0.76879882  1
  H  H7  1  0.16934902  0.40882464  0.66985747  1
  H  H8  1  0.20715596  0.42582134  0.54051484  1
  H  H9  1  0.33857295  0.43471479  0.43431146  1
  H  H10  1  0.37920752  0.17712180  0.24203372  1
  H  H11  1  0.25032898  0.12017363  0.25303795  1
  H  H12  1  0.16207602  0.29753986  0.21441054  1
  H  H13  1  0.29264321  0.35559286  0.20743342  1
  H  H14  1  0.22738690  0.29773530  0.09404611  1
  H  H15  1  0.21623990  0.16974757  0.12159461  1
  H  H16  1  0.33775772  0.22506803  0.11509047  1
  H  H17  1  0.22320249  0.10883037  0.40077037  1
  H  H18  1  0.27966786  0.08433566  0.53043574  1
  H  H19  1  0.23956689  0.06739992  0.65914555  1
  H  H20  1  0.25485693  0.66734177  0.90508713  1
  H  H21  1  0.16652484  0.76784228  0.88876115  1
  H  H22  1  0.29840867  0.79235542  0.89118050  1
  H  H23  1  0.33086152  0.67967025  0.78684156  1
  H  H24  1  0.18966183  0.65333737  0.78442263  1
  H  H25  1  0.14954946  0.85221752  0.76648521  1
  H  H26  1  0.28998944  0.87840829  0.76912651  1
  H  H27  1  0.40895217  0.83024372  0.66927380  1
  H  H28  1  0.42514692  0.79291882  0.53988241  1
  H  H29  1  0.43833651  0.66249836  0.43464520  1
  H  H30  1  0.17932140  0.62139728  0.24249672  1
  H  H31  1  0.11989070  0.75128311  0.25335986  1
  H  H32  1  0.29545213  0.83647910  0.21563714  1
  H  H33  1  0.35607074  0.70508949  0.20748079  1
  H  H34  1  0.29749132  0.76824935  0.09444835  1
  H  H35  1  0.16956660  0.79168744  0.12348388  1
  H  H36  1  0.22005491  0.66534113  0.11662960  1
  H  H37  1  0.10685879  0.77607407  0.40117958  1
  H  H38  1  0.08599537  0.72058981  0.53183904  1
  H  H39  1  0.06965852  0.75993123  0.66058309  1
  H  H40  1  0.74101054  0.17425872  0.09519522  1
  H  H41  1  0.83046144  0.26992577  0.11073729  1
  H  H42  1  0.69812652  0.30117971  0.11298366  1
  H  H43  1  0.67082735  0.18332967  0.21465760  1
  H  H44  1  0.81261165  0.15393893  0.21480843  1
  H  H45  1  0.85050933  0.35051177  0.23450017  1
  H  H46  1  0.70994684  0.38101870  0.23139112  1
  H  H47  1  0.58921596  0.33084443  0.33046888  1
  H  H48  1  0.57322466  0.29319500  0.45985954  1
  H  H49  1  0.56583346  0.16131652  0.56598498  1
  H  H50  1  0.82400189  0.12177636  0.75909361  1
  H  H51  1  0.88093498  0.25049833  0.74712466  1
  H  H52  1  0.70308175  0.33923744  0.78393114  1
  H  H53  1  0.64493957  0.20895496  0.79184684  1
  H  H54  1  0.70111979  0.27491377  0.90503113  1
  H  H55  1  0.82962297  0.28773193  0.87827329  1
  H  H56  1  0.77563924  0.16580546  0.88526381  1
  H  H57  1  0.89224415  0.27655363  0.59923683  1
  H  H58  1  0.91512063  0.22068684  0.46968265  1
  H  H59  1  0.93102090  0.26067828  0.34056631  1
  H  H60  1  0.82922911  0.74523965  0.09456525  1
  H  H61  1  0.72943393  0.83385663  0.11179481  1
  H  H62  1  0.70457383  0.70182048  0.10928848  1
  H  H63  1  0.81874647  0.66838724  0.21282658  1
  H  H64  1  0.84556500  0.80927399  0.21555967  1
  H  H65  1  0.64652414  0.84968285  0.23375565  1
  H  H66  1  0.62001785  0.70949352  0.23117866  1
  H  H67  1  0.67000902  0.59003731  0.33122658  1
  H  H68  1  0.70767040  0.57421417  0.46052024  1
  H  H69  1  0.84116911  0.56410182  0.56540079  1
  H  H70  1  0.87725859  0.82118314  0.75830556  1
  H  H71  1  0.74725426  0.88026436  0.74667643  1
  H  H72  1  0.66213506  0.70403306  0.78329560  1
  H  H73  1  0.79373854  0.64415103  0.79256592  1
  H  H74  1  0.72828028  0.70228241  0.90519674  1
  H  H75  1  0.70355159  0.82971599  0.87527887  1
  H  H76  1  0.83081281  0.78087423  0.88378270  1
  H  H77  1  0.72119631  0.89287009  0.59885469  1
  H  H78  1  0.77774070  0.91363135  0.46813516  1
  H  H79  1  0.73790285  0.92948445  0.33912209  1
  Pb  Pb80  1  0.01032477  0.99473654  0.00672062  1
  Pb  Pb81  1  0.00100975  0.49328368  0.99799871  1
  Pb  Pb82  1  0.50707843  0.99092052  0.99743188  1
  Pb  Pb83  1  0.50487733  0.49663467  0.99753112  1
  C  C84  1  0.28459323  0.24919564  0.79503653  1
  C  C85  1  0.18186973  0.22818669  0.75275231  1
  C  C86  1  0.20272925  0.23711708  0.67373486  1
  C  C87  1  0.19454607  0.33768840  0.63933026  1
  C  C88  1  0.21629051  0.34737560  0.56670463  1
  C  C89  1  0.24774797  0.25671642  0.52610460  1
  C  C90  1  0.27188268  0.26761183  0.44983743  1
  C  C91  1  0.31358347  0.35610013  0.41606328  1
  C  C92  1  0.28877249  0.23448005  0.33183312  1
  C  C93  1  0.29462194  0.19609924  0.25686428  1
  C  C94  1  0.24810157  0.27993237  0.20497155  1
  C  C95  1  0.25632793  0.18880162  0.39452019  1
  C  C96  1  0.25524190  0.15591885  0.56064656  1
  C  C97  1  0.23314563  0.14648391  0.63338682  1
  C  C98  1  0.24992849  0.71482507  0.79605514  1
  C  C99  1  0.22999526  0.81834576  0.75331732  1
  C  C100  1  0.23849248  0.79697811  0.67425743  1
  C  C101  1  0.33816488  0.80527833  0.63919517  1
  C  C102  1  0.34741054  0.78375338  0.56653842  1
  C  C103  1  0.25724520  0.75237426  0.52650224  1
  C  C104  1  0.26816655  0.72805132  0.45029134  1
  C  C105  1  0.35829986  0.68667463  0.41651574  1
  C  C106  1  0.23488333  0.71062162  0.33244692  1
  C  C107  1  0.19667423  0.70546114  0.25743071  1
  C  C108  1  0.27943427  0.75105827  0.20556694  1
  C  C109  1  0.18821576  0.74306007  0.39504054  1
  C  C110  1  0.15720190  0.74487804  0.56164777  1
  C  C111  1  0.14818339  0.76670544  0.63442797  1
  C  C112  1  0.75088630  0.21701878  0.20457653  1
  C  C113  1  0.77026407  0.31907555  0.24755945  1
  C  C114  1  0.76115510  0.29738181  0.32640685  1
  C  C115  1  0.66068594  0.30563577  0.36089609  1
  C  C116  1  0.65162422  0.28405044  0.43361702  1
  C  C117  1  0.74274825  0.25273172  0.47410094  1
  C  C118  1  0.73268745  0.22843158  0.55038683  1
  C  C119  1  0.64441838  0.18658180  0.58428123  1
  C  C120  1  0.76680951  0.21097291  0.66827448  1
  C  C121  1  0.80506148  0.20603285  0.74340899  1
  C  C122  1  0.72060338  0.25350380  0.79440479  1
  C  C123  1  0.81209075  0.24363305  0.60555125  1
  C  C124  1  0.84338233  0.24514718  0.43943480  1
  C  C125  1  0.85218731  0.26702849  0.36664608  1
  C  C126  1  0.78364841  0.74941811  0.20393720  1
  C  C127  1  0.68040093  0.76920646  0.24689649  1
  C  C128  1  0.70224042  0.76060010  0.32588237  1
  C  C129  1  0.69465881  0.66099682  0.36111039  1
  C  C130  1  0.71618833  0.65203020  0.43384393  1
  C  C131  1  0.74682885  0.74252180  0.47370858  1
  C  C132  1  0.77146577  0.73230755  0.54994733  1
  C  C133  1  0.81477073  0.64315088  0.58377218  1
  C  C134  1  0.78916290  0.76597971  0.66770416  1
  C  C135  1  0.79337758  0.80371779  0.74273238  1
  C  C136  1  0.74733948  0.72049201  0.79414516  1
  C  C137  1  0.75548988  0.81208196  0.60504234  1
  C  C138  1  0.75378348  0.84240877  0.43835572  1
  C  C139  1  0.73198554  0.85107854  0.36552715  1
  I  I140  1  0.25609816  0.01219335  0.98484114  1
  I  I141  1  0.25028688  0.50630392  0.00548393  1
  I  I142  1  0.75644491  0.01277327  0.00810029  1
  I  I143  1  0.74989522  0.53289940  0.99464287  1
  I  I144  1  0.98827232  0.24602484  0.00333566  1
  I  I145  1  0.98932472  0.74701634  0.99558833  1
  I  I146  1  0.49511634  0.24582811  0.99000572  1
  I  I147  1  0.47116670  0.74679455  0.01679507  1
  I  I148  1  0.99162604  0.99398219  0.83825642  1
  I  I149  1  0.03631300  0.98822942  0.17723303  1
  I  I150  1  0.99924953  0.48115490  0.82669521  1
  I  I151  1  0.00420743  0.49789555  0.16713990  1
  I  I152  1  0.52938204  0.97146723  0.82658165  1
  I  I153  1  0.50176880  0.01121490  0.16574720  1
  I  I154  1  0.49868422  0.50383267  0.82860084  1
  I  I155  1  0.51164439  0.48288352  0.16953587  1
  N  N156  1  0.26095590  0.24601239  0.87377718  1
  N  N157  1  0.25797985  0.24036720  0.12918749  1
  N  N158  1  0.24200313  0.73710916  0.87503439  1
  N  N159  1  0.23833001  0.74387321  0.13036818  1
  N  N160  1  0.75523719  0.24247451  0.12598307  1
  N  N161  1  0.75948503  0.24509909  0.87039986  1
  N  N162  1  0.76010025  0.75819203  0.12517007  1
  N  N163  1  0.75276137  0.76139063  0.86945219  1
  O  O164  1  0.32489015  0.33731163  0.34434402  1
  O  O165  1  0.33946110  0.67514420  0.34489141  1
  O  O166  1  0.66374007  0.17494291  0.65595960  1
  O  O167  1  0.82664325  0.66213959  0.65531504  1
