# generated using pymatgen
data_H21PbC14I4N3
_symmetry_space_group_name_H-M   'P 1'
_cell_length_a   12.43772122
_cell_length_b   12.45281977
_cell_length_c   18.64612362
_cell_angle_alpha   90.09412084
_cell_angle_beta   89.91151920
_cell_angle_gamma   89.85575587
_symmetry_Int_Tables_number   1
_chemical_formula_structural   H21PbC14I4N3
_chemical_formula_sum   'H84 Pb4 C56 I16 N12'
_cell_volume   2887.98276503
_cell_formula_units_Z   4
loop_
 _symmetry_equiv_pos_site_id
 _symmetry_equiv_pos_as_xyz
  1  'x, y, z'
loop_
 _atom_site_type_symbol
 _atom_site_label
 _atom_site_symmetry_multiplicity
 _atom_site_fract_x
 _atom_site_fract_y
 _atom_site_fract_z
 _atom_site_occupancy
  H  H0  1  0.21656434  0.11636104  0.87148810  1
  H  H1  1  0.18613826  0.24431824  0.88278334  1
  H  H2  1  0.31145394  0.20326979  0.89851685  1
  H  H3  1  0.30799131  0.29552206  0.78478024  1
  H  H4  1  0.33806497  0.15644359  0.77344551  1
  H  H5  1  0.14344472  0.11957036  0.74624316  1
  H  H6  1  0.11294613  0.25773159  0.75727974  1
  H  H7  1  0.16571185  0.38980910  0.66673611  1
  H  H8  1  0.21310971  0.42463550  0.53999404  1
  H  H9  1  0.34901945  0.45414416  0.44448279  1
  H  H10  1  0.38424731  0.42382070  0.31205296  1
  H  H11  1  0.38955077  0.28912021  0.21820655  1
  H  H12  1  0.37389730  0.15331016  0.24317930  1
  H  H13  1  0.17205987  0.17226757  0.23294401  1
  H  H14  1  0.18878798  0.30753710  0.20365754  1
  H  H15  1  0.17367948  0.18591376  0.10336603  1
  H  H16  1  0.29767963  0.23638573  0.10290035  1
  H  H17  1  0.27897795  0.11274796  0.13187597  1
  H  H18  1  0.25747118  0.12888291  0.38261944  1
  H  H19  1  0.29548612  0.09062128  0.51249990  1
  H  H20  1  0.24503798  0.05549790  0.63824003  1
  H  H21  1  0.11502189  0.78321311  0.87106218  1
  H  H22  1  0.24293725  0.81268352  0.88270568  1
  H  H23  1  0.20200824  0.68766514  0.89814625  1
  H  H24  1  0.29493289  0.69147458  0.78438996  1
  H  H25  1  0.15597130  0.66172518  0.77272204  1
  H  H26  1  0.11897360  0.85704249  0.74650636  1
  H  H27  1  0.25739235  0.88634779  0.75755649  1
  H  H28  1  0.38949464  0.83482427  0.66662883  1
  H  H29  1  0.42507623  0.78749970  0.53986077  1
  H  H30  1  0.45722127  0.65503763  0.44340501  1
  H  H31  1  0.42820296  0.62301137  0.31035480  1
  H  H32  1  0.28966166  0.61112822  0.21780426  1
  H  H33  1  0.15389710  0.62712692  0.24383970  1
  H  H34  1  0.17225537  0.82857988  0.23303706  1
  H  H35  1  0.30776529  0.81169820  0.20362184  1
  H  H36  1  0.18630778  0.82734138  0.10359071  1
  H  H37  1  0.23760562  0.70349026  0.10274167  1
  H  H38  1  0.11356577  0.72189947  0.13173696  1
  H  H39  1  0.12897283  0.73978446  0.38330357  1
  H  H40  1  0.09120688  0.70460618  0.51267855  1
  H  H41  1  0.05527331  0.75564666  0.63812239  1
  H  H42  1  0.88478444  0.29274602  0.13021275  1
  H  H43  1  0.75689407  0.32056649  0.11713913  1
  H  H44  1  0.80102391  0.19658457  0.10070485  1
  H  H45  1  0.70424689  0.19620775  0.21347456  1
  H  H46  1  0.84335312  0.16579674  0.22543150  1
  H  H47  1  0.87919877  0.35983272  0.25494531  1
  H  H48  1  0.74093772  0.38983401  0.24407616  1
  H  H49  1  0.60849328  0.33499753  0.33424392  1
  H  H50  1  0.57359389  0.28687806  0.46064014  1
  H  H51  1  0.54571661  0.14974420  0.55604234  1
  H  H52  1  0.57562239  0.11618208  0.68847979  1
  H  H53  1  0.71129467  0.11373316  0.78273140  1
  H  H54  1  0.84724107  0.12995251  0.75728412  1
  H  H55  1  0.82745057  0.33112903  0.76667220  1
  H  H56  1  0.69121986  0.31530710  0.79447998  1
  H  H57  1  0.80718294  0.33424044  0.89648154  1
  H  H58  1  0.76019771  0.20922566  0.89673762  1
  H  H59  1  0.88499381  0.23108137  0.87016554  1
  H  H60  1  0.87069064  0.24331356  0.61723560  1
  H  H61  1  0.90833898  0.20501964  0.48721868  1
  H  H62  1  0.94317707  0.25614741  0.36140530  1
  H  H63  1  0.70756749  0.88404460  0.13002491  1
  H  H64  1  0.68064237  0.75615841  0.11689827  1
  H  H65  1  0.80449964  0.80036499  0.10067194  1
  H  H66  1  0.80489716  0.70422534  0.21343166  1
  H  H67  1  0.83476591  0.84314772  0.22549623  1
  H  H68  1  0.64012807  0.87922794  0.25489015  1
  H  H69  1  0.61089382  0.74115027  0.24361924  1
  H  H70  1  0.66621156  0.60879553  0.33390015  1
  H  H71  1  0.71371846  0.57448199  0.46053724  1
  H  H72  1  0.85144690  0.54661226  0.55576654  1
  H  H73  1  0.88430642  0.57619543  0.68846437  1
  H  H74  1  0.88628560  0.71145573  0.78295670  1
  H  H75  1  0.87028467  0.84751152  0.75792718  1
  H  H76  1  0.66833302  0.82788036  0.76621184  1
  H  H77  1  0.68490754  0.69212019  0.79426020  1
  H  H78  1  0.66484903  0.80799352  0.89629816  1
  H  H79  1  0.79045106  0.76164298  0.89660921  1
  H  H80  1  0.76784574  0.88603931  0.86994911  1
  H  H81  1  0.75677807  0.87135105  0.61752082  1
  H  H82  1  0.79422541  0.90878514  0.48741706  1
  H  H83  1  0.74331101  0.94321623  0.36171612  1
  Pb  Pb84  1  0.99664437  0.99899545  0.00887786  1
  Pb  Pb85  1  0.00362614  0.50141909  0.99471242  1
  Pb  Pb86  1  0.49850688  0.00173242  0.99466536  1
  Pb  Pb87  1  0.50103988  0.49942584  0.99616092  1
  C  C88  1  0.27440169  0.21416565  0.78718877  1
  C  C89  1  0.17582480  0.20104554  0.73941580  1
  C  C90  1  0.20319031  0.22071478  0.66181966  1
  C  C91  1  0.19516342  0.32423643  0.63294273  1
  C  C92  1  0.22241977  0.34391075  0.56177016  1
  C  C93  1  0.25983592  0.26079356  0.51680215  1
  C  C94  1  0.29060229  0.28279391  0.44241070  1
  C  C95  1  0.33118654  0.37965428  0.41681541  1
  C  C96  1  0.32398309  0.26592753  0.32280126  1
  C  C97  1  0.33565979  0.23292668  0.24634519  1
  C  C98  1  0.22790825  0.22858137  0.20738524  1
  C  C99  1  0.28664958  0.21101674  0.38239022  1
  C  C100  1  0.26686770  0.15678630  0.54597184  1
  C  C101  1  0.23898875  0.13716976  0.61722071  1
  C  C102  1  0.21335564  0.72516850  0.78681966  1
  C  C103  1  0.20049160  0.82416723  0.73943723  1
  C  C104  1  0.22041919  0.79732789  0.66171832  1
  C  C105  1  0.32415068  0.80541063  0.63283211  1
  C  C106  1  0.34424566  0.77806556  0.56166750  1
  C  C107  1  0.26151920  0.74036042  0.51675900  1
  C  C108  1  0.28417758  0.70980068  0.44231179  1
  C  C109  1  0.38219141  0.67172402  0.41609035  1
  C  C110  1  0.26741226  0.67679174  0.32261582  1
  C  C111  1  0.23358338  0.66507117  0.24635769  1
  C  C112  1  0.22887157  0.77270312  0.20742517  1
  C  C113  1  0.21192106  0.71238620  0.38262675  1
  C  C114  1  0.15725999  0.73342986  0.54594274  1
  C  C115  1  0.13713753  0.76158412  0.61713772  1
  C  C116  1  0.78579084  0.22972672  0.21214543  1
  C  C117  1  0.79775746  0.32693653  0.26133819  1
  C  C118  1  0.77783207  0.29786932  0.33858128  1
  C  C119  1  0.67417951  0.30540919  0.36773126  1
  C  C120  1  0.65457101  0.27780951  0.43885647  1
  C  C121  1  0.73801113  0.24059133  0.48347081  1
  C  C122  1  0.71645183  0.20965575  0.55790495  1
  C  C123  1  0.61979661  0.16876392  0.58381028  1
  C  C124  1  0.73384514  0.17687920  0.67752193  1
  C  C125  1  0.76717662  0.16737423  0.75405812  1
  C  C126  1  0.77029385  0.27603021  0.79207981  1
  C  C127  1  0.78847901  0.21400318  0.61770379  1
  C  C128  1  0.84211646  0.23384320  0.45402634  1
  C  C129  1  0.86152858  0.26196732  0.38282829  1
  C  C130  1  0.77101390  0.78568953  0.21211614  1
  C  C131  1  0.67346981  0.79789982  0.26119624  1
  C  C132  1  0.70225950  0.77806763  0.33851889  1
  C  C133  1  0.69503667  0.67461984  0.36758806  1
  C  C134  1  0.72246574  0.65527494  0.43878952  1
  C  C135  1  0.75943715  0.73861422  0.48355980  1
  C  C136  1  0.79073575  0.71714782  0.55796069  1
  C  C137  1  0.83196135  0.62050951  0.58372762  1
  C  C138  1  0.82371309  0.73458189  0.67761017  1
  C  C139  1  0.83287114  0.76769179  0.75427781  1
  C  C140  1  0.72372966  0.77114616  0.79190684  1
  C  C141  1  0.78639475  0.78919590  0.61787097  1
  C  C142  1  0.76573513  0.84250559  0.45419533  1
  C  C143  1  0.73764301  0.86169888  0.38298341  1
  I  I144  1  0.24716557  0.95308650  0.99569067  1
  I  I145  1  0.25079120  0.56442001  0.99822321  1
  I  I146  1  0.74777765  0.05978521  0.00360752  1
  I  I147  1  0.75154405  0.45424244  0.00242646  1
  I  I148  1  0.04619931  0.25002407  0.99999174  1
  I  I149  1  0.94007640  0.75084920  0.99927943  1
  I  I150  1  0.43620027  0.25154326  0.99849626  1
  I  I151  1  0.54646279  0.75181610  0.00214164  1
  I  I152  1  0.99351236  0.00190298  0.84074748  1
  I  I153  1  0.00972786  -0.00005439  0.17808362  1
  I  I154  1  0.99898098  0.48897058  0.81985549  1
  I  I155  1  0.00124149  0.50507236  0.16182743  1
  I  I156  1  0.49818092  0.99165071  0.82019822  1
  I  I157  1  0.49191248  0.99853341  0.16179060  1
  I  I158  1  0.50184163  0.49956058  0.83248003  1
  I  I159  1  0.50954823  0.50659560  0.18370354  1
  N  N160  1  0.24568161  0.19322248  0.86422607  1
  N  N161  1  0.35046770  0.36796901  0.34495636  1
  N  N162  1  0.24490927  0.18859856  0.13216848  1
  N  N163  1  0.19190533  0.75347905  0.86391272  1
  N  N164  1  0.37062687  0.65252415  0.34409812  1
  N  N165  1  0.18928485  0.75600128  0.13212002  1
  N  N166  1  0.80836735  0.26120490  0.13579631  1
  N  N167  1  0.63164526  0.14980040  0.65568173  1
  N  N168  1  0.80796665  0.26203979  0.86805570  1
  N  N169  1  0.73966334  0.80781336  0.13563931  1
  N  N170  1  0.85099467  0.63232054  0.65564361  1
  N  N171  1  0.73715964  0.80914554  0.86788495  1
