# generated using pymatgen
data_H22PbC15S(I2N)2
_symmetry_space_group_name_H-M   'P 1'
_cell_length_a   12.16047979
_cell_length_b   12.27164156
_cell_length_c   20.20473627
_cell_angle_alpha   89.86571491
_cell_angle_beta   89.81227841
_cell_angle_gamma   87.58393905
_symmetry_Int_Tables_number   1
_chemical_formula_structural   H22PbC15S(I2N)2
_chemical_formula_sum   'H88 Pb4 C60 S4 I16 N8'
_cell_volume   3012.42977689
_cell_formula_units_Z   4
loop_
 _symmetry_equiv_pos_site_id
 _symmetry_equiv_pos_as_xyz
  1  'x, y, z'
loop_
 _atom_site_type_symbol
 _atom_site_label
 _atom_site_symmetry_multiplicity
 _atom_site_fract_x
 _atom_site_fract_y
 _atom_site_fract_z
 _atom_site_occupancy
  H  H0  1  0.17820194  0.23803369  0.89106127  1
  H  H1  1  0.26835554  0.13651642  0.87469818  1
  H  H2  1  0.31062790  0.24708056  0.91317731  1
  H  H3  1  0.37365824  0.26134881  0.80267743  1
  H  H4  1  0.26002710  0.35660983  0.81286270  1
  H  H5  1  0.24500869  0.12470662  0.75668870  1
  H  H6  1  0.13250119  0.21802510  0.76894229  1
  H  H7  1  0.21332748  0.34777268  0.68785726  1
  H  H8  1  0.32564668  0.25462551  0.67356655  1
  H  H9  1  0.08443811  0.19843445  0.65325443  1
  H  H10  1  0.20072060  0.11606127  0.63102697  1
  H  H11  1  0.25646138  0.12960865  0.50753336  1
  H  H12  1  0.19990499  0.09437209  0.38706789  1
  H  H13  1  0.25356761  0.06224137  0.27010609  1
  H  H14  1  0.36627523  0.12642027  0.17191399  1
  H  H15  1  0.39845725  0.26624414  0.16638395  1
  H  H16  1  0.17931585  0.17382201  0.14436419  1
  H  H17  1  0.19650710  0.30748704  0.14729982  1
  H  H18  1  0.26366676  0.23007162  0.08945220  1
  H  H19  1  0.36089545  0.39166454  0.25541826  1
  H  H20  1  0.30756495  0.42402409  0.37258184  1
  H  H21  1  0.13572317  0.45235431  0.44179841  1
  H  H22  1  0.22901835  0.82249983  0.88446045  1
  H  H23  1  0.14577863  0.71991686  0.87646687  1
  H  H24  1  0.26517929  0.69649372  0.91414892  1
  H  H25  1  0.27305930  0.62253428  0.80347950  1
  H  H26  1  0.36495102  0.73166326  0.81174603  1
  H  H27  1  0.12921918  0.75442719  0.75595859  1
  H  H28  1  0.21825023  0.86232115  0.76705205  1
  H  H29  1  0.35227923  0.77647542  0.68590449  1
  H  H30  1  0.26039892  0.67158503  0.67061402  1
  H  H31  1  0.19873213  0.91558500  0.65477147  1
  H  H32  1  0.11638836  0.80741844  0.63178862  1
  H  H33  1  0.13244557  0.74764194  0.50846793  1
  H  H34  1  0.09163268  0.80723315  0.38693257  1
  H  H35  1  0.06130678  0.75366144  0.27038469  1
  H  H36  1  0.12901351  0.64347748  0.17236622  1
  H  H37  1  0.26895209  0.59651087  0.16813040  1
  H  H38  1  0.18318391  0.82486857  0.14447880  1
  H  H39  1  0.31699463  0.78745415  0.14667120  1
  H  H40  1  0.23722332  0.73349322  0.08972920  1
  H  H41  1  0.39893219  0.63391170  0.25598199  1
  H  H42  1  0.42871749  0.68659534  0.37314237  1
  H  H43  1  0.44930116  0.86043501  0.43991888  1
  H  H44  1  0.75765235  0.32494193  0.10775595  1
  H  H45  1  0.86075351  0.23521629  0.12233934  1
  H  H46  1  0.74790199  0.19408313  0.08524367  1
  H  H47  1  0.73738998  0.12978719  0.19504844  1
  H  H48  1  0.64034764  0.24202378  0.18642199  1
  H  H49  1  0.87497007  0.25666248  0.24187339  1
  H  H50  1  0.77996682  0.36821724  0.23092735  1
  H  H51  1  0.64898566  0.28284808  0.31024838  1
  H  H52  1  0.74516261  0.17327843  0.32392058  1
  H  H53  1  0.79244119  0.41349252  0.34882149  1
  H  H54  1  0.88149608  0.30098167  0.36843086  1
  H  H55  1  0.87559374  0.26021308  0.49490052  1
  H  H56  1  0.90375961  0.30753460  0.61461195  1
  H  H57  1  0.93716317  0.25694179  0.73206653  1
  H  H58  1  0.87666471  0.13864618  0.82992896  1
  H  H59  1  0.73551759  0.10666101  0.83587881  1
  H  H60  1  0.82825285  0.32461118  0.85671106  1
  H  H61  1  0.69308586  0.30654091  0.85420431  1
  H  H62  1  0.77246095  0.24203172  0.91220691  1
  H  H63  1  0.61043077  0.13610820  0.74614622  1
  H  H64  1  0.57779643  0.18434033  0.62852697  1
  H  H65  1  0.53499117  0.33302983  0.55567573  1
  H  H66  1  0.67372518  0.75848322  0.11063817  1
  H  H67  1  0.76722842  0.85094582  0.12194235  1
  H  H68  1  0.80375932  0.73370940  0.08491359  1
  H  H69  1  0.87440630  0.72631799  0.19453190  1
  H  H70  1  0.76474013  0.63434912  0.18789565  1
  H  H71  1  0.74260677  0.86990181  0.24076169  1
  H  H72  1  0.63318734  0.78178386  0.23233169  1
  H  H73  1  0.72110179  0.65250769  0.31476279  1
  H  H74  1  0.82965144  0.74171486  0.32632688  1
  H  H75  1  0.58593839  0.80986498  0.34570676  1
  H  H76  1  0.69860215  0.88833544  0.36668779  1
  H  H77  1  0.75287562  0.87428437  0.49308127  1
  H  H78  1  0.69615001  0.91233643  0.61312948  1
  H  H79  1  0.74871358  0.94156658  0.72948094  1
  H  H80  1  0.85387864  0.87234532  0.82912521  1
  H  H81  1  0.90089623  0.73337621  0.83301846  1
  H  H82  1  0.66934160  0.81809790  0.85531934  1
  H  H83  1  0.70872706  0.68547769  0.85360680  1
  H  H84  1  0.76046161  0.76564758  0.91107762  1
  H  H85  1  0.86088712  0.60427815  0.74501884  1
  H  H86  1  0.80905066  0.57513883  0.62810094  1
  H  H87  1  0.64361320  0.55599141  0.55741092  1
  Pb  Pb88  1  0.01235146  0.98366228  0.00390382  1
  Pb  Pb89  1  0.02225364  0.48404267  0.99948920  1
  Pb  Pb90  1  0.51180386  0.98783119  0.99644980  1
  Pb  Pb91  1  0.51616851  0.48292706  0.99969730  1
  C  C92  1  0.28415027  0.26948255  0.80979156  1
  C  C93  1  0.22086084  0.21234297  0.75636300  1
  C  C94  1  0.23791352  0.26030155  0.68757530  1
  C  C95  1  0.17012001  0.20149943  0.63547899  1
  C  C96  1  0.17269128  0.25272388  0.56820707  1
  C  C97  1  0.21667312  0.21083267  0.51034827  1
  C  C98  1  0.20818365  0.28503401  0.45553409  1
  C  C99  1  0.24685345  0.26256569  0.38762870  1
  C  C100  1  0.23500576  0.15985722  0.35830394  1
  C  C101  1  0.26467551  0.14200856  0.29240207  1
  C  C102  1  0.30748268  0.22617691  0.25440326  1
  C  C103  1  0.33587154  0.21002406  0.18276384  1
  C  C104  1  0.32334515  0.32736678  0.28411809  1
  C  C105  1  0.29357061  0.34529276  0.34982034  1
  C  C106  1  0.15612472  0.38287882  0.47353858  1
  C  C107  1  0.27804720  0.71114726  0.80910363  1
  C  C108  1  0.21671700  0.77491093  0.75515484  1
  C  C109  1  0.26455890  0.75736341  0.68597481  1
  C  C110  1  0.20241725  0.83137271  0.63554974  1
  C  C111  1  0.25229252  0.82890274  0.56771776  1
  C  C112  1  0.21168066  0.78588736  0.51040285  1
  C  C113  1  0.28491028  0.79247961  0.45500907  1
  C  C114  1  0.26351721  0.75394265  0.38758440  1
  C  C115  1  0.15907979  0.76896668  0.35840109  1
  C  C116  1  0.14216445  0.73909056  0.29284802  1
  C  C117  1  0.22889437  0.69275274  0.25503158  1
  C  C118  1  0.21359688  0.66475551  0.18366265  1
  C  C119  1  0.33212397  0.67378855  0.28453510  1
  C  C120  1  0.34897857  0.70377211  0.34993646  1
  C  C121  1  0.38068957  0.84218974  0.47201622  1
  C  C122  1  0.72841299  0.21858296  0.18874594  1
  C  C123  1  0.78650508  0.28033190  0.24244734  1
  C  C124  1  0.73776678  0.26055318  0.31091741  1
  C  C125  1  0.79399813  0.32718406  0.36454156  1
  C  C126  1  0.74197066  0.31817357  0.43157870  1
  C  C127  1  0.78889922  0.28586709  0.49074428  1
  C  C128  1  0.71254257  0.28610862  0.54499426  1
  C  C129  1  0.73698493  0.25254695  0.61350968  1
  C  C130  1  0.83927878  0.26985594  0.64330577  1
  C  C131  1  0.85785331  0.24171929  0.70935375  1
  C  C132  1  0.77510031  0.19565513  0.74741593  1
  C  C133  1  0.79210476  0.16854566  0.81914881  1
  C  C134  1  0.67416704  0.17532924  0.71751679  1
  C  C135  1  0.65585797  0.20276843  0.65157234  1
  C  C136  1  0.60800326  0.32083053  0.52503162  1
  C  C137  1  0.78494859  0.72069731  0.18936960  1
  C  C138  1  0.72180021  0.78338455  0.24313190  1
  C  C139  1  0.74210658  0.73894496  0.31274729  1
  C  C140  1  0.67158156  0.80396175  0.36388035  1
  C  C141  1  0.67490289  0.75499951  0.43185308  1
  C  C142  1  0.71592192  0.79506971  0.48991702  1
  C  C143  1  0.70926123  0.72086527  0.54459704  1
  C  C144  1  0.74634241  0.74093092  0.61255793  1
  C  C145  1  0.73272482  0.84459681  0.64173235  1
  C  C146  1  0.76171682  0.86086689  0.70753130  1
  C  C147  1  0.80551474  0.77406885  0.74572572  1
  C  C148  1  0.83240997  0.78864836  0.81742118  1
  C  C149  1  0.82293253  0.67135045  0.71628344  1
  C  C150  1  0.79389150  0.65509735  0.65064537  1
  C  C151  1  0.66167521  0.62523151  0.52621077  1
  S  S152  1  0.11879665  0.38420985  0.55530969  1
  S  S153  1  0.38126436  0.87954539  0.55347445  1
  S  S154  1  0.60272669  0.34969147  0.44237808  1
  S  S155  1  0.62635210  0.62607523  0.44444390  1
  I  I156  1  0.26077079  0.97333116  0.02877654  1
  I  I157  1  0.26387871  0.56456336  0.00968739  1
  I  I158  1  0.75647279  0.05687790  0.98949956  1
  I  I159  1  0.76853322  0.47318453  0.01178559  1
  I  I160  1  0.02371240  0.23653650  0.97959683  1
  I  I161  1  0.94674165  0.73996846  0.99019283  1
  I  I162  1  0.43807275  0.24312301  0.00822890  1
  I  I163  1  0.53877120  0.73737818  -0.00222836  1
  I  I164  1  0.06456766  0.98873087  0.84941907  1
  I  I165  1  0.00049604  0.98148280  0.16578712  1
  I  I166  1  0.02751315  0.48836397  0.83846026  1
  I  I167  1  0.02330492  0.43355631  0.15713392  1
  I  I168  1  0.50149902  0.96595154  0.83484726  1
  I  I169  1  0.53257857  0.96774365  0.15285404  1
  I  I170  1  0.54914505  0.46657165  0.83997451  1
  I  I171  1  0.53098685  0.48593483  0.15986123  1
  N  N172  1  0.25893477  0.22053599  0.87581510  1
  N  N173  1  0.23738610  0.23203606  0.13842286  1
  N  N174  1  0.22754821  0.73960126  0.87520178  1
  N  N175  1  0.23933822  0.75927772  0.13875481  1
  N  N176  1  0.77597815  0.24477403  0.12226217  1
  N  N177  1  0.76979206  0.26673753  0.86309189  1
  N  N178  1  0.75561247  0.76805342  0.12276443  1
  N  N179  1  0.73623237  0.76275820  0.86194334  1
