# generated using pymatgen
data_H24PbC20S(I2N)2
_symmetry_space_group_name_H-M   'P 1'
_cell_length_a   12.47478568
_cell_length_b   12.47349673
_cell_length_c   23.29434977
_cell_angle_alpha   90.07221570
_cell_angle_beta   90.12302497
_cell_angle_gamma   89.99461807
_symmetry_Int_Tables_number   1
_chemical_formula_structural   H24PbC20S(I2N)2
_chemical_formula_sum   'H96 Pb4 C80 S4 I16 N8'
_cell_volume   3624.68737477
_cell_formula_units_Z   4
loop_
 _symmetry_equiv_pos_site_id
 _symmetry_equiv_pos_as_xyz
  1  'x, y, z'
loop_
 _atom_site_type_symbol
 _atom_site_label
 _atom_site_symmetry_multiplicity
 _atom_site_fract_x
 _atom_site_fract_y
 _atom_site_fract_z
 _atom_site_occupancy
  H  H0  1  0.19336414  0.29746026  0.91044404  1
  H  H1  1  0.31060160  0.36099181  0.91250433  1
  H  H2  1  0.19862855  0.42362508  0.88982613  1
  H  H3  1  0.30808503  0.24273106  0.82971908  1
  H  H4  1  0.32168525  0.38045211  0.81111562  1
  H  H5  1  0.10911464  0.25475958  0.81054439  1
  H  H6  1  0.12310192  0.39253619  0.79453827  1
  H  H7  1  0.19366254  0.45414735  0.70210784  1
  H  H8  1  0.22535959  0.41087175  0.60058570  1
  H  H9  1  0.23268318  0.03524089  0.55270420  1
  H  H10  1  0.26372986  0.03584433  0.44279422  1
  H  H11  1  0.28185083  0.41223348  0.39665204  1
  H  H12  1  0.30969196  0.45551166  0.29516724  1
  H  H13  1  0.37676244  0.39260865  0.20013529  1
  H  H14  1  0.38617634  0.25395057  0.18409345  1
  H  H15  1  0.18472313  0.24498944  0.17357039  1
  H  H16  1  0.17609244  0.38326331  0.19152980  1
  H  H17  1  0.27899223  0.42518896  0.10628025  1
  H  H18  1  0.16925703  0.35366647  0.08994162  1
  H  H19  1  0.28976009  0.29734850  0.08843502  1
  H  H20  1  0.32794047  0.11901326  0.25428899  1
  H  H21  1  0.30027865  0.07435782  0.35579588  1
  H  H22  1  0.21570447  0.07290518  0.64188353  1
  H  H23  1  0.18178362  0.11775317  0.74289430  1
  H  H24  1  0.29772711  0.80680160  0.91056013  1
  H  H25  1  0.36128442  0.68950291  0.91239589  1
  H  H26  1  0.42380571  0.80139463  0.88984240  1
  H  H27  1  0.24267612  0.69200775  0.82967400  1
  H  H28  1  0.38031342  0.67826057  0.81099905  1
  H  H29  1  0.25469914  0.89091649  0.81077431  1
  H  H30  1  0.39243658  0.87683522  0.79474260  1
  H  H31  1  0.45393241  0.80642215  0.70226238  1
  H  H32  1  0.41059037  0.77473692  0.60065172  1
  H  H33  1  0.03505320  0.76734708  0.55266128  1
  H  H34  1  0.03562531  0.73632846  0.44271990  1
  H  H35  1  0.41201798  0.71812363  0.39670409  1
  H  H36  1  0.45528347  0.69028086  0.29515600  1
  H  H37  1  0.39222142  0.62329369  0.19999704  1
  H  H38  1  0.25359659  0.61394712  0.18389212  1
  H  H39  1  0.24477024  0.81549636  0.17370461  1
  H  H40  1  0.38306683  0.82395758  0.19168717  1
  H  H41  1  0.42467966  0.72061662  0.10632765  1
  H  H42  1  0.35382110  0.83082723  0.09018622  1
  H  H43  1  0.29680320  0.71064105  0.08835448  1
  H  H44  1  0.11878436  0.67215279  0.25415096  1
  H  H45  1  0.07417483  0.69979522  0.35569925  1
  H  H46  1  0.07267694  0.78412535  0.64191731  1
  H  H47  1  0.11756670  0.81809478  0.74297358  1
  H  H48  1  0.70179134  0.29498939  0.09044476  1
  H  H49  1  0.65036546  0.17245885  0.08915374  1
  H  H50  1  0.57437261  0.27814569  0.10739309  1
  H  H51  1  0.75734645  0.18609235  0.17377623  1
  H  H52  1  0.61933507  0.17133850  0.19091876  1
  H  H53  1  0.74064964  0.38645866  0.18796656  1
  H  H54  1  0.60259381  0.37074235  0.20366679  1
  H  H55  1  0.54245029  0.30566859  0.29815042  1
  H  H56  1  0.58697545  0.27477114  0.39933949  1
  H  H57  1  0.96376166  0.26663308  0.44587183  1
  H  H58  1  0.96520816  0.23541480  0.55578523  1
  H  H59  1  0.59016453  0.21815198  0.60335006  1
  H  H60  1  0.54832462  0.18937323  0.70525117  1
  H  H61  1  0.61322212  0.11629155  0.79829928  1
  H  H62  1  0.75152348  0.10953161  0.81473180  1
  H  H63  1  0.75469919  0.30972946  0.82997756  1
  H  H64  1  0.61701327  0.31666540  0.81012407  1
  H  H65  1  0.57607034  0.19843009  0.89076132  1
  H  H66  1  0.63537826  0.31335852  0.91185816  1
  H  H67  1  0.70200307  0.19755030  0.91240979  1
  H  H68  1  0.88508914  0.17000997  0.74473466  1
  H  H69  1  0.92859243  0.19900443  0.64312197  1
  H  H70  1  0.92433610  0.28375111  0.35711834  1
  H  H71  1  0.87852881  0.31649707  0.25615030  1
  H  H72  1  0.70542029  0.70242517  0.09035459  1
  H  H73  1  0.82767998  0.65032744  0.08937287  1
  H  H74  1  0.72156735  0.57490814  0.10741163  1
  H  H75  1  0.81409555  0.75761164  0.17392216  1
  H  H76  1  0.82875144  0.61953076  0.19106711  1
  H  H77  1  0.61366692  0.74096024  0.18775411  1
  H  H78  1  0.62941382  0.60291065  0.20352544  1
  H  H79  1  0.69433151  0.54262514  0.29813805  1
  H  H80  1  0.72520163  0.58715089  0.39939364  1
  H  H81  1  0.73338286  0.96403413  0.44577265  1
  H  H82  1  0.76460990  0.96544414  0.55571287  1
  H  H83  1  0.78196776  0.59040086  0.60341151  1
  H  H84  1  0.81071760  0.54848162  0.70539667  1
  H  H85  1  0.88364935  0.61327842  0.79849557  1
  H  H86  1  0.89046738  0.75156886  0.81494004  1
  H  H87  1  0.69035292  0.75475787  0.82991883  1
  H  H88  1  0.68332521  0.61712317  0.81001522  1
  H  H89  1  0.80166216  0.57588170  0.89077456  1
  H  H90  1  0.68681993  0.63510843  0.91174950  1
  H  H91  1  0.80264781  0.70175650  0.91250016  1
  H  H92  1  0.82982342  0.88528571  0.74481264  1
  H  H93  1  0.80078074  0.92885524  0.64316875  1
  H  H94  1  0.71632999  0.92454820  0.35702884  1
  H  H95  1  0.68361844  0.87877852  0.25601094  1
  Pb  Pb96  1  0.00086155  0.00048900  0.00142728  1
  Pb  Pb97  1  0.99907338  0.49978158  0.00771975  1
  Pb  Pb98  1  0.49998746  0.00047802  0.00773170  1
  Pb  Pb99  1  0.49938212  0.50031072  0.99046827  1
  C  C100  1  0.26601931  0.31996637  0.82777185  1
  C  C101  1  0.16379884  0.31463443  0.79188094  1
  C  C102  1  0.18632401  0.28881631  0.72997378  1
  C  C103  1  0.19930531  0.37015342  0.68903226  1
  C  C104  1  0.21714655  0.34559993  0.63146809  1
  C  C105  1  0.22322642  0.23832718  0.61262741  1
  C  C106  1  0.23978053  0.21011699  0.55231439  1
  C  C107  1  0.24285192  0.10853738  0.52802121  1
  C  C108  1  0.25982592  0.10890954  0.46826336  1
  C  C109  1  0.27024697  0.21073010  0.44498067  1
  C  C110  1  0.28776415  0.23948203  0.38484548  1
  C  C111  1  0.29144260  0.34676808  0.36591595  1
  C  C112  1  0.30713610  0.37141608  0.30819268  1
  C  C113  1  0.31992979  0.29003417  0.26714345  1
  C  C114  1  0.33530110  0.31539924  0.20452517  1
  C  C115  1  0.22824615  0.32146593  0.17302795  1
  C  C116  1  0.31698006  0.18326497  0.28565117  1
  C  C117  1  0.30147007  0.15836780  0.34315629  1
  C  C118  1  0.21137866  0.15702417  0.65430365  1
  C  C119  1  0.19306181  0.18199726  0.71163046  1
  C  C120  1  0.31992140  0.73400483  0.82776295  1
  C  C121  1  0.31452116  0.83618034  0.79202566  1
  C  C122  1  0.28862496  0.81361920  0.73008837  1
  C  C123  1  0.36995177  0.80070950  0.68914682  1
  C  C124  1  0.34536034  0.78286958  0.63155007  1
  C  C125  1  0.23809375  0.77672338  0.61268605  1
  C  C126  1  0.20990174  0.76020546  0.55233450  1
  C  C127  1  0.10833483  0.75717995  0.52799446  1
  C  C128  1  0.10871189  0.74023789  0.46820299  1
  C  C129  1  0.21053353  0.72979960  0.44495583  1
  C  C130  1  0.23930533  0.71228763  0.38481005  1
  C  C131  1  0.34656189  0.70858477  0.36591422  1
  C  C132  1  0.37119001  0.69289989  0.30815939  1
  C  C133  1  0.28978664  0.68016529  0.26706823  1
  C  C134  1  0.31506514  0.66481618  0.20443011  1
  C  C135  1  0.32118547  0.77186215  0.17310053  1
  C  C136  1  0.18303390  0.68310548  0.28555926  1
  C  C137  1  0.15815697  0.69859389  0.34307288  1
  C  C138  1  0.15679942  0.78848096  0.65435349  1
  C  C139  1  0.18180718  0.80681287  0.71171725  1
  C  C140  1  0.67936316  0.22685844  0.17368704  1
  C  C141  1  0.68129950  0.33184262  0.20729046  1
  C  C142  1  0.70752811  0.31310214  0.26961544  1
  C  C143  1  0.62666897  0.30071319  0.31084024  1
  C  C144  1  0.65203214  0.28294285  0.36835339  1
  C  C145  1  0.75952417  0.27634804  0.38686284  1
  C  C146  1  0.78890725  0.25884649  0.44696128  1
  C  C147  1  0.89090928  0.25595736  0.47080849  1
  C  C148  1  0.89176656  0.23891679  0.53056398  1
  C  C149  1  0.79040223  0.22825386  0.55429694  1
  C  C150  1  0.76285057  0.21153002  0.61464054  1
  C  C151  1  0.65586480  0.20838360  0.63396652  1
  C  C152  1  0.63214789  0.19252758  0.69176477  1
  C  C153  1  0.71407471  0.17905628  0.73249911  1
  C  C154  1  0.68928689  0.16004411  0.79480032  1
  C  C155  1  0.67920172  0.26455977  0.82837302  1
  C  C156  1  0.82057790  0.18219065  0.71360484  1
  C  C157  1  0.84470485  0.19795837  0.65600237  1
  C  C158  1  0.84015334  0.28840409  0.34489992  1
  C  C159  1  0.81454094  0.30652141  0.28764970  1
  C  C160  1  0.77327110  0.67965954  0.17375545  1
  C  C161  1  0.66831021  0.68160122  0.20718923  1
  C  C162  1  0.68701396  0.70776101  0.26953664  1
  C  C163  1  0.69934344  0.62685957  0.31080787  1
  C  C164  1  0.71708789  0.65221007  0.36835285  1
  C  C165  1  0.72370231  0.75970175  0.38683018  1
  C  C166  1  0.74118110  0.78911618  0.44693992  1
  C  C167  1  0.74407137  0.89114254  0.47073443  1
  C  C168  1  0.76110270  0.89199963  0.53052112  1
  C  C169  1  0.77173887  0.79062600  0.55431934  1
  C  C170  1  0.78841771  0.76307765  0.61470229  1
  C  C171  1  0.79164271  0.65607287  0.63404318  1
  C  C172  1  0.80748942  0.63230818  0.69187532  1
  C  C173  1  0.82087322  0.71424075  0.73260346  1
  C  C174  1  0.83992484  0.68937580  0.79493274  1
  C  C175  1  0.73548250  0.67923410  0.82835679  1
  C  C176  1  0.81766567  0.82076967  0.71368958  1
  C  C177  1  0.80188150  0.84494673  0.65605595  1
  C  C178  1  0.71167519  0.84037405  0.34482201  1
  C  C179  1  0.69358216  0.81477451  0.28755437  1
  S  S180  1  0.25844578  0.30607879  0.49913963  1
  S  S181  1  0.30587313  0.74152942  0.49918085  1
  S  S182  1  0.69402662  0.23923034  0.50054751  1
  S  S183  1  0.76075867  0.69422284  0.50060607  1
  I  I184  1  0.25230711  0.92606372  0.99977484  1
  I  I185  1  0.25201757  0.57391803  -0.00012841  1
  I  I186  1  0.74611727  0.07459281  1.00034380  1
  I  I187  1  0.74788537  0.42658584  0.00096578  1
  I  I188  1  0.07400229  0.25237727  0.99966704  1
  I  I189  1  0.92532519  0.74623539  1.00046187  1
  I  I190  1  0.42566959  0.25294531  0.00057483  1
  I  I191  1  0.57301216  0.74880504  0.00020760  1
  I  I192  1  0.99976914  0.99962840  0.85975342  1
  I  I193  1  0.99991093  0.00021698  0.13542304  1
  I  I194  1  0.99709862  0.49508371  0.87392441  1
  I  I195  1  0.99948162  0.49873760  0.14439347  1
  I  I196  1  0.49454229  0.00365603  0.87390054  1
  I  I197  1  0.49919696  0.99996377  0.14439999  1
  I  I198  1  0.50089128  0.50017908  0.85522969  1
  I  I199  1  0.50174187  0.50078896  0.12136743  1
  N  N200  1  0.24146340  0.35220729  0.88846099  1
  N  N201  1  0.24267899  0.35128258  0.11110454  1
  N  N202  1  0.35237277  0.75862364  0.88846784  1
  N  N203  1  0.35095431  0.75737004  0.11115773  1
  N  N204  1  0.64953832  0.24431314  0.11191701  1
  N  N205  1  0.64652001  0.24299148  0.88925311  1
  N  N206  1  0.75578492  0.64992834  0.11195568  1
  N  N207  1  0.75714315  0.64636000  0.88924987  1
