# generated using pymatgen
data_H18PbC15(IN)4
_symmetry_space_group_name_H-M   'P 1'
_cell_length_a   12.22112943
_cell_length_b   12.15072997
_cell_length_c   19.06200770
_cell_angle_alpha   88.07641382
_cell_angle_beta   88.48908113
_cell_angle_gamma   90.35001112
_symmetry_Int_Tables_number   1
_chemical_formula_structural   H18PbC15(IN)4
_chemical_formula_sum   'H72 Pb4 C60 I16 N16'
_cell_volume   2827.97710060
_cell_formula_units_Z   4
loop_
 _symmetry_equiv_pos_site_id
 _symmetry_equiv_pos_as_xyz
  1  'x, y, z'
loop_
 _atom_site_type_symbol
 _atom_site_label
 _atom_site_symmetry_multiplicity
 _atom_site_fract_x
 _atom_site_fract_y
 _atom_site_fract_z
 _atom_site_occupancy
  H  H0  1  0.34178958  0.32447657  0.82752709  1
  H  H1  1  0.27065709  0.27854214  0.89807298  1
  H  H2  1  0.31962434  0.18860169  0.83906799  1
  H  H3  1  0.12373073  0.21338774  0.82590383  1
  H  H4  1  0.14420105  0.35926519  0.82223899  1
  H  H5  1  0.17705148  0.10114320  0.72615328  1
  H  H6  1  0.21120131  0.09393842  0.59683058  1
  H  H7  1  0.31464181  0.01403856  0.36967090  1
  H  H8  1  0.32768878  0.08581711  0.24517295  1
  H  H9  1  0.37067377  0.24651260  0.16623089  1
  H  H10  1  0.32704782  0.37968391  0.18851776  1
  H  H11  1  0.18389760  0.19262251  0.15085647  1
  H  H12  1  0.13713852  0.31650357  0.17755890  1
  H  H13  1  0.21429164  0.30775815  0.10435871  1
  H  H14  1  0.27186518  0.41971362  0.30901381  1
  H  H15  1  0.23420361  0.41895551  0.46290210  1
  H  H16  1  0.24810007  0.44789046  0.58503740  1
  H  H17  1  0.21416871  0.45430384  0.71287010  1
  H  H18  1  0.31788287  0.64600968  0.83012805  1
  H  H19  1  0.27344796  0.71915376  0.89742132  1
  H  H20  1  0.18427510  0.67700331  0.83720274  1
  H  H21  1  0.23045037  0.87414865  0.82252002  1
  H  H22  1  0.37107229  0.83850109  0.81913570  1
  H  H23  1  0.10874262  0.82600312  0.72382540  1
  H  H24  1  0.09739760  0.79606999  0.59547799  1
  H  H25  1  0.01480885  0.68606710  0.36981766  1
  H  H26  1  0.08645948  0.67160139  0.24644792  1
  H  H27  1  0.24572083  0.62795641  0.16999550  1
  H  H28  1  0.37905413  0.67062377  0.19156929  1
  H  H29  1  0.19738043  0.81762811  0.14755661  1
  H  H30  1  0.32253195  0.86133767  0.17188540  1
  H  H31  1  0.30932947  0.78440866  0.10169065  1
  H  H32  1  0.41900026  0.72759394  0.31011142  1
  H  H33  1  0.41849665  0.76556794  0.46238074  1
  H  H34  1  0.44737895  0.74911982  0.58325667  1
  H  H35  1  0.45780101  0.77834972  0.71010286  1
  H  H36  1  0.67689649  0.14204401  0.17044210  1
  H  H37  1  0.73174377  0.21662796  0.10352006  1
  H  H38  1  0.81153655  0.16953831  0.16843109  1
  H  H39  1  0.77051001  0.36954456  0.17322538  1
  H  H40  1  0.62904922  0.33457805  0.17610859  1
  H  H41  1  0.88830958  0.32307044  0.27335943  1
  H  H42  1  0.89900963  0.29746294  0.40312508  1
  H  H43  1  0.99063661  0.20586592  0.62932452  1
  H  H44  1  0.92418861  0.17449187  0.75369983  1
  H  H45  1  0.77062310  0.11752360  0.83375007  1
  H  H46  1  0.63388063  0.15238520  0.81260128  1
  H  H47  1  0.80981136  0.30480094  0.85473955  1
  H  H48  1  0.68902622  0.34804776  0.82223306  1
  H  H49  1  0.69231051  0.27160057  0.89678742  1
  H  H50  1  0.58685143  0.20962495  0.69387853  1
  H  H51  1  0.57921049  0.24331286  0.53917823  1
  H  H52  1  0.54861542  0.24973546  0.41752895  1
  H  H53  1  0.53867849  0.27392170  0.28942057  1
  H  H54  1  0.85626584  0.67755916  0.16751767  1
  H  H55  1  0.78441709  0.73069221  0.10189874  1
  H  H56  1  0.82908299  0.81404790  0.16430892  1
  H  H57  1  0.63198851  0.77223164  0.17634951  1
  H  H58  1  0.66404649  0.62970644  0.17941487  1
  H  H59  1  0.67632284  0.89107764  0.27471833  1
  H  H60  1  0.70216707  0.90240649  0.40348520  1
  H  H61  1  0.80093905  0.99141951  0.62837692  1
  H  H62  1  0.82712003  0.92126649  0.75150212  1
  H  H63  1  0.87701675  0.76007975  0.82938880  1
  H  H64  1  0.83200554  0.62632606  0.80901586  1
  H  H65  1  0.69248781  0.81215904  0.85404953  1
  H  H66  1  0.64272408  0.69139746  0.82459909  1
  H  H67  1  0.71866120  0.69363149  0.89664908  1
  H  H68  1  0.78314958  0.58416190  0.69112108  1
  H  H69  1  0.75198197  0.57994584  0.53811640  1
  H  H70  1  0.74956600  0.55040707  0.41768721  1
  H  H71  1  0.72498966  0.53998348  0.29073133  1
  Pb  Pb72  1  0.99634929  0.99918049  0.00270723  1
  Pb  Pb73  1  0.00221930  0.50483214  0.99886757  1
  Pb  Pb74  1  0.49681472  0.00630477  0.99958242  1
  Pb  Pb75  1  0.49973705  0.50207259  0.98584750  1
  C  C76  1  0.17855984  0.28032391  0.80647030  1
  C  C77  1  0.19671360  0.27779638  0.72833003  1
  C  C78  1  0.19500354  0.17656186  0.69510976  1
  C  C79  1  0.21322611  0.17204620  0.62317863  1
  C  C80  1  0.23370551  0.26913077  0.58230846  1
  C  C81  1  0.25467917  0.25569871  0.50729796  1
  C  C82  1  0.28573345  0.17687372  0.40919565  1
  C  C83  1  0.30498044  0.10134593  0.35644765  1
  C  C84  1  0.31037144  0.14178546  0.28756989  1
  C  C85  1  0.29796888  0.25504174  0.27041784  1
  C  C86  1  0.30690916  0.29191159  0.19470182  1
  C  C87  1  0.27975558  0.33211814  0.32254993  1
  C  C88  1  0.27313371  0.29092581  0.39180520  1
  C  C89  1  0.23331821  0.37095631  0.61520513  1
  C  C90  1  0.21505178  0.37492444  0.68768540  1
  C  C91  1  0.28933097  0.81298813  0.80374571  1
  C  C92  1  0.28362306  0.80020725  0.72592137  1
  C  C93  1  0.18240330  0.80707091  0.69297068  1
  C  C94  1  0.17563436  0.79126738  0.62145808  1
  C  C95  1  0.27028086  0.76844290  0.58083653  1
  C  C96  1  0.25550370  0.74753924  0.50662199  1
  C  C97  1  0.17688143  0.71539789  0.40935467  1
  C  C98  1  0.10184148  0.69544430  0.35685938  1
  C  C99  1  0.14230582  0.68908302  0.28844984  1
  C  C100  1  0.25514339  0.70134165  0.27140354  1
  C  C101  1  0.29223119  0.69160513  0.19630268  1
  C  C102  1  0.33173724  0.71992861  0.32337151  1
  C  C103  1  0.29057034  0.72732809  0.39209043  1
  C  C104  1  0.37221024  0.76542819  0.61328099  1
  C  C105  1  0.37841092  0.78118882  0.68521813  1
  C  C106  1  0.70988218  0.30849307  0.19362350  1
  C  C107  1  0.71339724  0.29647819  0.27222859  1
  C  C108  1  0.81436768  0.30494111  0.30508974  1
  C  C109  1  0.82077873  0.29244460  0.37734196  1
  C  C110  1  0.72592739  0.27117796  0.41934901  1
  C  C111  1  0.74256420  0.25344180  0.49456970  1
  C  C112  1  0.82592256  0.22726125  0.59193110  1
  C  C113  1  0.90387533  0.20910439  0.64353371  1
  C  C114  1  0.86622580  0.19293895  0.71236103  1
  C  C115  1  0.75337864  0.19510951  0.73059641  1
  C  C116  1  0.71969014  0.17867427  0.80638715  1
  C  C117  1  0.67390686  0.21097085  0.67942956  1
  C  C118  1  0.71213208  0.22614579  0.61005062  1
  C  C119  1  0.62413759  0.26582662  0.38687584  1
  C  C120  1  0.61823757  0.27845142  0.31392462  1
  C  C121  1  0.69117183  0.71109311  0.19537562  1
  C  C122  1  0.70242020  0.71540426  0.27351429  1
  C  C123  1  0.69380712  0.81690663  0.30620425  1
  C  C124  1  0.70669372  0.82364113  0.37797078  1
  C  C125  1  0.72837063  0.72862203  0.41959720  1
  C  C126  1  0.74701888  0.74500046  0.49402969  1
  C  C127  1  0.77533173  0.82693537  0.59061713  1
  C  C128  1  0.79491301  0.90382105  0.64212509  1
  C  C129  1  0.80822128  0.86412146  0.71041908  1
  C  C130  1  0.80167776  0.75026562  0.72825106  1
  C  C131  1  0.81267182  0.71394286  0.80355435  1
  C  C132  1  0.78532795  0.67199813  0.67713058  1
  C  C133  1  0.77311667  0.71218418  0.60835902  1
  C  C134  1  0.73346918  0.62620923  0.38737853  1
  C  C135  1  0.72053577  0.61999752  0.31499144  1
  I  I136  1  0.24522617  0.07006617  0.03163780  1
  I  I137  1  0.25173768  0.42225756  0.99514604  1
  I  I138  1  0.74333560  0.92475269  0.98080679  1
  I  I139  1  0.75183355  0.57519976  -0.00001000  1
  I  I140  1  0.92376233  0.25443335  0.98584179  1
  I  I141  1  0.08114863  0.75105275  0.02166109  1
  I  I142  1  0.57808204  0.25355391  0.00482728  1
  I  I143  1  0.42633780  0.75295126  0.98887891  1
  I  I144  1  0.02415241  0.98720493  0.83987032  1
  I  I145  1  0.94742733  0.99786115  0.17593439  1
  I  I146  1  0.03395241  0.54065665  0.83243043  1
  I  I147  1  0.99026427  0.48543942  0.17038188  1
  I  I148  1  0.45526989  0.04274249  0.83478680  1
  I  I149  1  0.51645515  0.98927981  0.17012123  1
  I  I150  1  0.50432253  0.50367941  0.80562564  1
  I  I151  1  0.49807537  0.50329007  0.14526874  1
  N  N152  1  0.28395590  0.26635282  0.84477659  1
  N  N153  1  0.27496470  0.15819505  0.48058957  1
  N  N154  1  0.20294418  0.27497651  0.15556989  1
  N  N155  1  0.25460025  0.33923939  0.45586013  1
  N  N156  1  0.26365095  0.70718110  0.84418047  1
  N  N157  1  0.15826659  0.72740682  0.48021597  1
  N  N158  1  0.27850685  0.79625447  0.15253192  1
  N  N159  1  0.33865254  0.74654782  0.45561860  1
  N  N160  1  0.73515397  0.20283517  0.15747939  1
  N  N161  1  0.84179044  0.24508230  0.52080482  1
  N  N162  1  0.72934384  0.28332434  0.84670326  1
  N  N163  1  0.66101724  0.24283851  0.54646991  1
  N  N164  1  0.79725909  0.73575208  0.15532627  1
  N  N165  1  0.75808639  0.84426199  0.52007125  1
  N  N166  1  0.70880066  0.73009979  0.84645772  1
  N  N167  1  0.75558240  0.66206507  0.54536551  1
