# generated using pymatgen
data_H21PbC14I4N3
_symmetry_space_group_name_H-M   'P 1'
_cell_length_a   12.35386688
_cell_length_b   12.43735720
_cell_length_c   18.37453695
_cell_angle_alpha   89.46140204
_cell_angle_beta   90.11030848
_cell_angle_gamma   89.51453855
_symmetry_Int_Tables_number   1
_chemical_formula_structural   H21PbC14I4N3
_chemical_formula_sum   'H84 Pb4 C56 I16 N12'
_cell_volume   2823.00584336
_cell_formula_units_Z   4
loop_
 _symmetry_equiv_pos_site_id
 _symmetry_equiv_pos_as_xyz
  1  'x, y, z'
loop_
 _atom_site_type_symbol
 _atom_site_label
 _atom_site_symmetry_multiplicity
 _atom_site_fract_x
 _atom_site_fract_y
 _atom_site_fract_z
 _atom_site_occupancy
  H  H0  1  0.19094718  0.14144363  0.83797087  1
  H  H1  1  0.32527524  0.11455495  0.83954436  1
  H  H2  1  0.26756789  0.18277501  0.90736638  1
  H  H3  1  0.22327854  0.33350284  0.82736833  1
  H  H4  1  0.36418942  0.30788059  0.83877386  1
  H  H5  1  0.32562601  0.34476108  0.71137456  1
  H  H6  1  0.37123278  0.21098738  0.72058361  1
  H  H7  1  0.13075604  0.27590601  0.71204466  1
  H  H8  1  0.18232118  0.14260762  0.70825782  1
  H  H9  1  0.24892463  0.06932167  0.59326140  1
  H  H10  1  0.27568222  0.09134619  0.46117530  1
  H  H11  1  0.31894565  0.44018903  0.36443666  1
  H  H12  1  0.30343371  0.39396338  0.22154664  1
  H  H13  1  0.13937523  0.21460710  0.16628163  1
  H  H14  1  0.17972197  0.09528544  0.21244696  1
  H  H15  1  0.27273741  0.11759176  0.09938602  1
  H  H16  1  0.36396728  0.12193559  0.16609944  1
  H  H17  1  0.32496254  0.23453226  0.12240451  1
  H  H18  1  0.18736253  0.13017439  0.34427829  1
  H  H19  1  0.19770058  0.42911009  0.47785129  1
  H  H20  1  0.17573182  0.40730929  0.61098831  1
  H  H21  1  0.13882080  0.80497938  0.83769485  1
  H  H22  1  0.12039545  0.66945517  0.83965414  1
  H  H23  1  0.18479093  0.72959144  0.90769726  1
  H  H24  1  0.33413352  0.77824629  0.82847896  1
  H  H25  1  0.31413926  0.63742548  0.83939549  1
  H  H26  1  0.34846319  0.67577464  0.71252838  1
  H  H27  1  0.21429996  0.63092766  0.72118683  1
  H  H28  1  0.27623857  0.86956974  0.71163187  1
  H  H29  1  0.14286264  0.81858877  0.70736411  1
  H  H30  1  0.06999801  0.75054578  0.59281649  1
  H  H31  1  0.09222804  0.72318326  0.46090821  1
  H  H32  1  0.44370003  0.67951410  0.36704003  1
  H  H33  1  0.39650391  0.69465545  0.22328105  1
  H  H34  1  0.21070430  0.85849314  0.16738030  1
  H  H35  1  0.09252922  0.81674807  0.21345590  1
  H  H36  1  0.11462317  0.72754373  0.10026981  1
  H  H37  1  0.12475884  0.63470663  0.16624238  1
  H  H38  1  0.23489238  0.67723055  0.12160117  1
  H  H39  1  0.12872190  0.80860340  0.34403456  1
  H  H40  1  0.43114728  0.80112427  0.47898851  1
  H  H41  1  0.40879821  0.82489232  0.61175713  1
  H  H42  1  0.86446628  0.31688621  0.16431012  1
  H  H43  1  0.88451332  0.18256479  0.15785155  1
  H  H44  1  0.82075575  0.25091181  0.09173285  1
  H  H45  1  0.66802762  0.28838371  0.17036481  1
  H  H46  1  0.69226541  0.14808497  0.15732032  1
  H  H47  1  0.65361378  0.18094779  0.28470839  1
  H  H48  1  0.78826905  0.13498194  0.27704312  1
  H  H49  1  0.72314701  0.37340441  0.28784746  1
  H  H50  1  0.85731671  0.32237600  0.29228891  1
  H  H51  1  0.93158013  0.25360861  0.40690068  1
  H  H52  1  0.91097139  0.22549780  0.53912820  1
  H  H53  1  0.56140216  0.17686311  0.63415113  1
  H  H54  1  0.60461635  0.20193509  0.77780890  1
  H  H55  1  0.77820157  0.37276685  0.82920118  1
  H  H56  1  0.90119425  0.33494911  0.78678731  1
  H  H57  1  0.88204249  0.24886565  0.90226306  1
  H  H58  1  0.87678245  0.15332152  0.83887497  1
  H  H59  1  0.76458964  0.19458365  0.88100714  1
  H  H60  1  0.86886158  0.31761943  0.65543306  1
  H  H61  1  0.56998857  0.30047780  0.52078429  1
  H  H62  1  0.59055484  0.32449317  0.38774488  1
  H  H63  1  0.67890069  0.85950321  0.16561888  1
  H  H64  1  0.81224449  0.88231803  0.15544862  1
  H  H65  1  0.74128934  0.81461287  0.09212243  1
  H  H66  1  0.71298950  0.66526357  0.17265797  1
  H  H67  1  0.85266986  0.69021465  0.15757994  1
  H  H68  1  0.82221073  0.65359610  0.28637295  1
  H  H69  1  0.86533866  0.78771768  0.27615709  1
  H  H70  1  0.62650757  0.72341546  0.28942195  1
  H  H71  1  0.67628272  0.85600217  0.29242019  1
  H  H72  1  0.74646347  0.92912421  0.40611358  1
  H  H73  1  0.77460483  0.90829207  0.53848639  1
  H  H74  1  0.82126114  0.55983036  0.63532125  1
  H  H75  1  0.79946439  0.60316714  0.77915711  1
  H  H76  1  0.62790276  0.78411463  0.82932584  1
  H  H77  1  0.67794554  0.90377072  0.78929022  1
  H  H78  1  0.75538468  0.86620041  0.90657348  1
  H  H79  1  0.85459643  0.86154708  0.84397274  1
  H  H80  1  0.80428619  0.74867030  0.88118836  1
  H  H81  1  0.68545551  0.86985689  0.65658845  1
  H  H82  1  0.69933941  0.57100603  0.52310551  1
  H  H83  1  0.67590978  0.59166344  0.39015115  1
  Pb  Pb84  1  0.00489604  0.98999152  0.00382760  1
  Pb  Pb85  1  0.02302275  0.48696002  0.99852120  1
  Pb  Pb86  1  0.50228260  0.98736104  0.99843252  1
  Pb  Pb87  1  0.51749206  0.49152131  -0.00143437  1
  C  C88  1  0.28951176  0.27753582  0.81416634  1
  C  C89  1  0.30262581  0.26514524  0.73254506  1
  C  C90  1  0.19992043  0.22669425  0.69333624  1
  C  C91  1  0.21015699  0.23666972  0.61183923  1
  C  C92  1  0.23728413  0.14864305  0.56826618  1
  C  C93  1  0.25127211  0.16092421  0.49326738  1
  C  C94  1  0.23797229  0.26216460  0.45943251  1
  C  C95  1  0.25077809  0.27811695  0.38119144  1
  C  C96  1  0.28765085  0.36660787  0.34151844  1
  C  C97  1  0.27964965  0.34231543  0.26663423  1
  C  C98  1  0.23847853  0.23925290  0.26140852  1
  C  C99  1  0.20605955  0.17634071  0.19706359  1
  C  C100  1  0.21047935  0.35047857  0.50334239  1
  C  C101  1  0.19725136  0.33768869  0.57800906  1
  C  C102  1  0.28060823  0.71128779  0.81477952  1
  C  C103  1  0.26802287  0.69884828  0.73310554  1
  C  C104  1  0.22774544  0.80090101  0.69313518  1
  C  C105  1  0.23774172  0.78998585  0.61184463  1
  C  C106  1  0.14946228  0.76223453  0.56806121  1
  C  C107  1  0.16194540  0.74760545  0.49330911  1
  C  C108  1  0.26363762  0.76058343  0.46009585  1
  C  C109  1  0.27964985  0.74707225  0.38214741  1
  C  C110  1  0.36910659  0.71036561  0.34315315  1
  C  C111  1  0.34412940  0.71793200  0.26803701  1
  C  C112  1  0.23957339  0.75867609  0.26217664  1
  C  C113  1  0.17448491  0.79144177  0.19798134  1
  C  C114  1  0.35223499  0.78869844  0.50413640  1
  C  C115  1  0.33912503  0.80276814  0.57854243  1
  C  C116  1  0.72305283  0.22087495  0.18328003  1
  C  C117  1  0.73433802  0.20402083  0.26503981  1
  C  C118  1  0.77266138  0.30405696  0.30618286  1
  C  C119  1  0.76254994  0.29027477  0.38748044  1
  C  C120  1  0.85168049  0.26331857  0.43155155  1
  C  C121  1  0.84020618  0.24846122  0.50655091  1
  C  C122  1  0.73834906  0.26051079  0.53982312  1
  C  C123  1  0.72276591  0.24796552  0.61813306  1
  C  C124  1  0.63440785  0.21004748  0.65761787  1
  C  C125  1  0.65747914  0.22209423  0.73261412  1
  C  C126  1  0.75984457  0.26640029  0.73798313  1
  C  C127  1  0.82030387  0.30643185  0.80156120  1
  C  C128  1  0.64888530  0.28783069  0.49552669  1
  C  C129  1  0.66095655  0.30207880  0.42084476  1
  C  C130  1  0.77941819  0.72093549  0.18426088  1
  C  C131  1  0.79710789  0.73328802  0.26563787  1
  C  C132  1  0.69593850  0.77195902  0.30698941  1
  C  C133  1  0.70963516  0.76192747  0.38829866  1
  C  C134  1  0.73650846  0.85006721  0.43151933  1
  C  C135  1  0.75132891  0.83849947  0.50656543  1
  C  C136  1  0.73919365  0.73770988  0.54085185  1
  C  C137  1  0.75204057  0.72218371  0.61923050  1
  C  C138  1  0.78925991  0.63312875  0.65884905  1
  C  C139  1  0.77915959  0.65625123  0.73380790  1
  C  C140  1  0.73677546  0.75948550  0.73906564  1
  C  C141  1  0.69913508  0.82029136  0.80323004  1
  C  C142  1  0.71207888  0.64920525  0.49732512  1
  C  C143  1  0.69803473  0.66132335  0.42260945  1
  I  I144  1  0.25042617  0.93155794  0.01595640  1
  I  I145  1  0.27195403  0.57266798  0.00174427  1
  I  I146  1  0.75109357  0.05707797  0.99701644  1
  I  I147  1  0.77631273  0.45798891  0.97889462  1
  I  I148  1  0.06436041  0.23644271  0.99674313  1
  I  I149  1  0.95390508  0.74246203  0.00639693  1
  I  I150  1  0.44096834  0.24517800  0.99641856  1
  I  I151  1  0.58722439  0.75030823  0.99580758  1
  I  I152  1  0.01622384  0.99088370  0.82311420  1
  I  I153  1  0.96697647  0.00224610  0.18008187  1
  I  I154  1  0.04403851  0.49489055  0.82180810  1
  I  I155  1  1.00113965  0.47431165  0.17535779  1
  I  I156  1  0.46622827  0.98927067  0.82272937  1
  I  I157  1  0.51000119  0.98126920  0.17667297  1
  I  I158  1  0.51652461  0.49716391  0.82732057  1
  I  I159  1  0.53916365  0.49077744  0.17444175  1
  N  N160  1  0.26528983  0.17276406  0.85158489  1
  N  N161  1  0.29697275  0.16271180  0.14368484  1
  N  N162  1  0.22309373  0.20078996  0.33129005  1
  N  N163  1  0.17420857  0.73205762  0.85182552  1
  N  N164  1  0.16225733  0.70273290  0.14417777  1
  N  N165  1  0.20105093  0.77434969  0.33171693  1
  N  N166  1  0.82961017  0.24524193  0.14745685  1
  N  N167  1  0.83666472  0.22067140  0.85893922  1
  N  N168  1  0.79906110  0.27962813  0.66827139  1
  N  N169  1  0.75146685  0.82575137  0.14754880  1
  N  N170  1  0.78411521  0.82429064  0.86192833  1
  N  N171  1  0.72259405  0.79911151  0.66929250  1
