# generated using pymatgen
data_H21PbC14I4N3
_symmetry_space_group_name_H-M   'P 1'
_cell_length_a   12.32125488
_cell_length_b   12.32797296
_cell_length_c   18.85399515
_cell_angle_alpha   89.73169458
_cell_angle_beta   89.82169201
_cell_angle_gamma   89.62454228
_symmetry_Int_Tables_number   1
_chemical_formula_structural   H21PbC14I4N3
_chemical_formula_sum   'H84 Pb4 C56 I16 N12'
_cell_volume   2863.74179108
_cell_formula_units_Z   4
loop_
 _symmetry_equiv_pos_site_id
 _symmetry_equiv_pos_as_xyz
  1  'x, y, z'
loop_
 _atom_site_type_symbol
 _atom_site_label
 _atom_site_symmetry_multiplicity
 _atom_site_fract_x
 _atom_site_fract_y
 _atom_site_fract_z
 _atom_site_occupancy
  H  H0  1  0.27940198  0.36640822  0.87667373  1
  H  H1  1  0.32359827  0.23976176  0.88229452  1
  H  H2  1  0.19431880  0.26917523  0.90312163  1
  H  H3  1  0.20239785  0.18344109  0.78731031  1
  H  H4  1  0.15458726  0.31992848  0.78135177  1
  H  H5  1  0.34359652  0.38247120  0.75118751  1
  H  H6  1  0.39173583  0.24724452  0.75870625  1
  H  H7  1  0.24763139  0.44386984  0.64399851  1
  H  H8  1  0.19641225  0.40951405  0.51993154  1
  H  H9  1  0.13670304  0.05151719  0.45008711  1
  H  H10  1  0.11277820  0.08699405  0.30834203  1
  H  H11  1  0.11834664  0.32740736  0.24246033  1
  H  H12  1  0.24486381  0.37824082  0.26962857  1
  H  H13  1  0.33856184  0.21151604  0.22138201  1
  H  H14  1  0.21050119  0.15806357  0.19618204  1
  H  H15  1  0.30507719  0.25265340  0.09940390  1
  H  H16  1  0.18487011  0.30982676  0.11663468  1
  H  H17  1  0.30104203  0.36783433  0.14444056  1
  H  H18  1  0.26140869  0.35982359  0.39928316  1
  H  H19  1  0.28615179  0.07267935  0.54514660  1
  H  H20  1  0.33478491  0.10727071  0.67053404  1
  H  H21  1  0.36915181  0.72425025  0.87513670  1
  H  H22  1  0.24345459  0.68190858  0.88436056  1
  H  H23  1  0.27231199  0.81120303  0.90183079  1
  H  H24  1  0.18272670  0.80030163  0.78723439  1
  H  H25  1  0.31879067  0.84677423  0.77854850  1
  H  H26  1  0.38111238  0.65558408  0.75197898  1
  H  H27  1  0.24566657  0.60996811  0.75993357  1
  H  H28  1  0.44224038  0.75395013  0.64439538  1
  H  H29  1  0.40795049  0.80374774  0.52020005  1
  H  H30  1  0.04683178  0.85676556  0.44853827  1
  H  H31  1  0.08171142  0.88067587  0.30655847  1
  H  H32  1  0.32414776  0.88071739  0.24154836  1
  H  H33  1  0.37677982  0.75395930  0.26880020  1
  H  H34  1  0.20990547  0.66087401  0.22181885  1
  H  H35  1  0.15547960  0.78926980  0.19557332  1
  H  H36  1  0.24635357  0.69537883  0.09888035  1
  H  H37  1  0.30836996  0.81176549  0.11553710  1
  H  H38  1  0.36232390  0.69158348  0.14332136  1
  H  H39  1  0.36070861  0.74125594  0.39936939  1
  H  H40  1  0.07241801  0.71169703  0.54446697  1
  H  H41  1  0.10695867  0.66423820  0.67049251  1
  H  H42  1  0.63279924  0.21312399  0.12520744  1
  H  H43  1  0.75963878  0.17097054  0.11763682  1
  H  H44  1  0.72810963  0.29950846  0.09691398  1
  H  H45  1  0.81789637  0.29384535  0.21136119  1
  H  H46  1  0.68121163  0.34155429  0.21828498  1
  H  H47  1  0.62020078  0.15296862  0.25021408  1
  H  H48  1  0.75563202  0.10551885  0.24290536  1
  H  H49  1  0.55869284  0.25103262  0.35572525  1
  H  H50  1  0.59240640  0.30300161  0.48019808  1
  H  H51  1  0.94820090  0.36721447  0.55028869  1
  H  H52  1  0.91188903  0.39074936  0.69229234  1
  H  H53  1  0.67306791  0.37923020  0.75890283  1
  H  H54  1  0.62213425  0.25369868  0.73005792  1
  H  H55  1  0.78887301  0.15832029  0.77748860  1
  H  H56  1  0.84239068  0.28541208  0.80423370  1
  H  H57  1  0.74860340  0.18957306  0.90065021  1
  H  H58  1  0.68654759  0.30777167  0.88278166  1
  H  H59  1  0.63410522  0.18886146  0.85478256  1
  H  H60  1  0.64279519  0.23569257  0.60101641  1
  H  H61  1  0.92981272  0.21356375  0.45563079  1
  H  H62  1  0.89577644  0.16460645  0.33082352  1
  H  H63  1  0.78282315  0.63251506  0.12454826  1
  H  H64  1  0.82577686  0.75809880  0.11560056  1
  H  H65  1  0.69688257  0.72950219  0.09683472  1
  H  H66  1  0.70474404  0.81922749  0.21116596  1
  H  H67  1  0.65677222  0.68340992  0.21916977  1
  H  H68  1  0.84663169  0.62001892  0.24883572  1
  H  H69  1  0.89335721  0.75498221  0.24157338  1
  H  H70  1  0.74941918  0.55826480  0.35536934  1
  H  H71  1  0.69858222  0.59143715  0.48007016  1
  H  H72  1  0.63247646  0.94748126  0.55051983  1
  H  H73  1  0.61077891  0.91265539  0.69304161  1
  H  H74  1  0.62277898  0.67343052  0.76000432  1
  H  H75  1  0.74865390  0.62176496  0.73064652  1
  H  H76  1  0.84252874  0.78949186  0.77616532  1
  H  H77  1  0.71521558  0.84264592  0.80444883  1
  H  H78  1  0.81381800  0.75080194  0.89978007  1
  H  H79  1  0.69713393  0.68753278  0.88395108  1
  H  H80  1  0.81739423  0.63589339  0.85445261  1
  H  H81  1  0.76400755  0.64043274  0.60108740  1
  H  H82  1  0.78595420  0.92808077  0.45562341  1
  H  H83  1  0.83491043  0.89431006  0.33010245  1
  Pb  Pb84  1  1.00064370  0.00396637  0.99725538  1
  Pb  Pb85  1  0.99406854  0.49933991  0.99622173  1
  Pb  Pb86  1  0.49647391  0.00092946  0.99653636  1
  Pb  Pb87  1  0.49752570  0.50530667  0.00847342  1
  C  C88  1  0.22619561  0.26882752  0.79170939  1
  C  C89  1  0.32116875  0.29722382  0.74298997  1
  C  C90  1  0.29414619  0.27781667  0.66626761  1
  C  C91  1  0.25639347  0.36211104  0.62255926  1
  C  C92  1  0.22859193  0.34288067  0.55210488  1
  C  C93  1  0.23769007  0.23818559  0.52303428  1
  C  C94  1  0.20769020  0.21508164  0.44994399  1
  C  C95  1  0.16071198  0.12328239  0.42066862  1
  C  C96  1  0.14819107  0.14159990  0.34683244  1
  C  C97  1  0.18865765  0.24393944  0.33160260  1
  C  C98  1  0.19877895  0.30271673  0.26258772  1
  C  C99  1  0.25512011  0.23312304  0.20653450  1
  C  C100  1  0.27638999  0.15384379  0.56712365  1
  C  C101  1  0.30388581  0.17347407  0.63739219  1
  C  C102  1  0.26841977  0.77597770  0.79093211  1
  C  C103  1  0.29593405  0.67947318  0.74350820  1
  C  C104  1  0.27675431  0.70583816  0.66645171  1
  C  C105  1  0.36069829  0.74399143  0.62284698  1
  C  C106  1  0.34138256  0.77137869  0.55210242  1
  C  C107  1  0.23701905  0.76126519  0.52263534  1
  C  C108  1  0.21315898  0.79004838  0.44918314  1
  C  C109  1  0.11920759  0.83353533  0.41922864  1
  C  C110  1  0.13717381  0.84598791  0.34535913  1
  C  C111  1  0.24146117  0.80896482  0.33068306  1
  C  C112  1  0.30057578  0.80002099  0.26162930  1
  C  C113  1  0.23078701  0.74394014  0.20605482  1
  C  C114  1  0.15317588  0.72227379  0.56677313  1
  C  C115  1  0.17277321  0.69534758  0.63731673  1
  C  C116  1  0.73237317  0.26994991  0.20807661  1
  C  C117  1  0.70538497  0.17610051  0.25799273  1
  C  C118  1  0.72495988  0.20515110  0.33430429  1
  C  C119  1  0.64039421  0.24314887  0.37759650  1
  C  C120  1  0.65922597  0.27137316  0.44802251  1
  C  C121  1  0.76388705  0.26250794  0.47735727  1
  C  C122  1  0.78625875  0.29291634  0.55054352  1
  C  C123  1  0.87694803  0.34205221  0.57989789  1
  C  C124  1  0.85794833  0.35458133  0.65367964  1
  C  C125  1  0.75636867  0.31184186  0.66881101  1
  C  C126  1  0.69770796  0.29943645  0.73782559  1
  C  C127  1  0.76726899  0.24119804  0.79339495  1
  C  C128  1  0.84858502  0.22383151  0.43366439  1
  C  C129  1  0.82923947  0.19590506  0.36343600  1
  C  C130  1  0.72834105  0.73337705  0.20790064  1
  C  C131  1  0.82296425  0.70526128  0.25689582  1
  C  C132  1  0.79421120  0.72438338  0.33355263  1
  C  C133  1  0.75697333  0.63986982  0.37707124  1
  C  C134  1  0.72922966  0.65840200  0.44779792  1
  C  C135  1  0.73769573  0.76273553  0.47728895  1
  C  C136  1  0.70766196  0.78518846  0.55078867  1
  C  C137  1  0.65881426  0.87661169  0.58035996  1
  C  C138  1  0.64697939  0.85817086  0.65432500  1
  C  C139  1  0.68966689  0.75604921  0.66928170  1
  C  C140  1  0.70241538  0.69763348  0.73844832  1
  C  C141  1  0.76033101  0.76757243  0.79322011  1
  C  C142  1  0.77581225  0.84729088  0.43338718  1
  C  C143  1  0.80337428  0.82824151  0.36288425  1
  I  I144  1  0.25080451  0.93379738  0.00358058  1
  I  I145  1  0.24615344  0.54399660  0.99151568  1
  I  I146  1  0.74964168  0.04591587  -0.00074485  1
  I  I147  1  0.74588321  0.44103074  0.00480625  1
  I  I148  1  0.06618599  0.25112877  0.00175076  1
  I  I149  1  0.95584913  0.75168540  0.00363635  1
  I  I150  1  0.45630758  0.25243412  0.00479835  1
  I  I151  1  0.56397650  0.75119284  0.99378645  1
  I  I152  1  0.00217276  0.99706879  0.83129889  1
  I  I153  1  0.98056664  0.00058780  0.17165207  1
  I  I154  1  0.98509395  0.51876987  0.82323976  1
  I  I155  1  0.00140740  0.49382052  0.16193397  1
  I  I156  1  0.49912452  0.03592190  0.82321321  1
  I  I157  1  0.49560164  0.99858208  0.16200719  1
  I  I158  1  0.50844805  0.50100964  0.84352075  1
  I  I159  1  0.46548580  0.50776015  0.18203661  1
  N  N160  1  0.25759752  0.28692115  0.86759025  1
  N  N161  1  0.26113319  0.29454537  0.13777037  1
  N  N162  1  0.22309649  0.28780077  0.39466704  1
  N  N163  1  0.28937926  0.74713756  0.86703910  1
  N  N164  1  0.29088906  0.73600787  0.13682503  1
  N  N165  1  0.28669158  0.77659668  0.39416765  1
  N  N166  1  0.71224570  0.23674361  0.13287221  1
  N  N167  1  0.70579554  0.23262173  0.86200682  1
  N  N168  1  0.71363535  0.27631133  0.60564880  1
  N  N169  1  0.75970626  0.71236581  0.13215371  1
  N  N170  1  0.77164425  0.70683403  0.86193318  1
  N  N171  1  0.72469137  0.71256867  0.60593326  1
