# generated using pymatgen
data_H22PbC15S(I2N)2
_symmetry_space_group_name_H-M   'P 1'
_cell_length_a   12.15103949
_cell_length_b   12.29870735
_cell_length_c   20.16609226
_cell_angle_alpha   89.06275634
_cell_angle_beta   89.48694896
_cell_angle_gamma   90.74347701
_symmetry_Int_Tables_number   1
_chemical_formula_structural   H22PbC15S(I2N)2
_chemical_formula_sum   'H88 Pb4 C60 S4 I16 N8'
_cell_volume   3012.87922865
_cell_formula_units_Z   4
loop_
 _symmetry_equiv_pos_site_id
 _symmetry_equiv_pos_as_xyz
  1  'x, y, z'
loop_
 _atom_site_type_symbol
 _atom_site_label
 _atom_site_symmetry_multiplicity
 _atom_site_fract_x
 _atom_site_fract_y
 _atom_site_fract_z
 _atom_site_occupancy
  H  H0  1  0.26392449  0.29898248  0.90864983  1
  H  H1  1  0.20151666  0.21424276  0.85599622  1
  H  H2  1  0.33812616  0.21504258  0.86027594  1
  H  H3  1  0.19746747  0.39954883  0.81365160  1
  H  H4  1  0.34187162  0.41080047  0.82805584  1
  H  H5  1  0.37647503  0.26919502  0.74119253  1
  H  H6  1  0.31752995  0.39007579  0.71060339  1
  H  H7  1  0.19001466  0.17601336  0.74008525  1
  H  H8  1  0.12969097  0.29919373  0.71410481  1
  H  H9  1  0.30283398  0.06146894  0.65245484  1
  H  H10  1  0.31926615  0.05302902  0.52186935  1
  H  H11  1  0.18240121  0.06639139  0.42601042  1
  H  H12  1  0.15940119  0.09628252  0.30532559  1
  H  H13  1  0.11493372  0.23950270  0.21817015  1
  H  H14  1  0.17138584  0.37166435  0.22526528  1
  H  H15  1  0.30205108  0.16673044  0.19157482  1
  H  H16  1  0.36084410  0.29918274  0.20419957  1
  H  H17  1  0.32977860  0.27141752  0.08907524  1
  H  H18  1  0.24322488  0.36794203  0.11628005  1
  H  H19  1  0.19498791  0.24428691  0.10108583  1
  H  H20  1  0.25898347  0.43155278  0.32552239  1
  H  H21  1  0.28253437  0.40207354  0.44623547  1
  H  H22  1  0.30508209  0.75615735  0.90489027  1
  H  H23  1  0.21955485  0.81129677  0.84876641  1
  H  H24  1  0.21853644  0.67576380  0.86493422  1
  H  H25  1  0.40842411  0.80217190  0.80843821  1
  H  H26  1  0.40949373  0.66071306  0.82943823  1
  H  H27  1  0.26538978  0.62511115  0.74256615  1
  H  H28  1  0.38888974  0.68158795  0.70992681  1
  H  H29  1  0.17664595  0.80931998  0.73693621  1
  H  H30  1  0.30246481  0.86861323  0.71081983  1
  H  H31  1  0.05696187  0.69855934  0.65022205  1
  H  H32  1  0.04945319  0.68212516  0.51975185  1
  H  H33  1  0.06861681  0.82015888  0.42300651  1
  H  H34  1  0.10086540  0.84663164  0.30220445  1
  H  H35  1  0.24613322  0.88697998  0.21411492  1
  H  H36  1  0.37840987  0.82983726  0.22215440  1
  H  H37  1  0.16186841  0.70373796  0.19792232  1
  H  H38  1  0.29040886  0.64100441  0.21316264  1
  H  H39  1  0.24412226  0.65880723  0.09753743  1
  H  H40  1  0.36432655  0.72062312  0.11536411  1
  H  H41  1  0.25366329  0.79638872  0.10099223  1
  H  H42  1  0.43608541  0.74413064  0.32550299  1
  H  H43  1  0.40440487  0.71699278  0.44605003  1
  H  H44  1  0.69747494  0.21339147  0.08907472  1
  H  H45  1  0.78551979  0.27697709  0.13717405  1
  H  H46  1  0.77829379  0.14026836  0.14016799  1
  H  H47  1  0.60379963  0.29697737  0.18124889  1
  H  H48  1  0.58134515  0.15400534  0.17315020  1
  H  H49  1  0.72868682  0.12014498  0.25959247  1
  H  H50  1  0.60781203  0.18141848  0.28858104  1
  H  H51  1  0.82514703  0.30476822  0.25725912  1
  H  H52  1  0.70089262  0.36555172  0.28233899  1
  H  H53  1  0.94332509  0.19782123  0.34735241  1
  H  H54  1  0.95035521  0.18227900  0.47788537  1
  H  H55  1  0.93315867  0.31877763  0.57278254  1
  H  H56  1  0.90159240  0.33850483  0.69371481  1
  H  H57  1  0.75605442  0.37500631  0.77965434  1
  H  H58  1  0.62393266  0.31532400  0.77217114  1
  H  H59  1  0.83517345  0.19011429  0.80453219  1
  H  H60  1  0.70053470  0.13139662  0.79620021  1
  H  H61  1  0.73827813  0.16507409  0.91027371  1
  H  H62  1  0.63687355  0.24662177  0.88422907  1
  H  H63  1  0.76143458  0.29937830  0.89421676  1
  H  H64  1  0.56535882  0.23217822  0.67103599  1
  H  H65  1  0.59586702  0.21273348  0.55028665  1
  H  H66  1  0.77614001  0.70401654  0.09300077  1
  H  H67  1  0.70357620  0.78224543  0.14463026  1
  H  H68  1  0.84062657  0.79048310  0.14333852  1
  H  H69  1  0.70181037  0.59949561  0.18799253  1
  H  H70  1  0.84630224  0.59070146  0.17336538  1
  H  H71  1  0.88014749  0.73203910  0.26053613  1
  H  H72  1  0.81873136  0.61025963  0.29082462  1
  H  H73  1  0.69469986  0.82250739  0.26145814  1
  H  H74  1  0.63227025  0.69886402  0.28767842  1
  H  H75  1  0.80534236  0.94013227  0.34902745  1
  H  H76  1  0.82109491  0.94744204  0.47950664  1
  H  H77  1  0.68134913  0.92840950  0.57603083  1
  H  H78  1  0.65814901  0.89709491  0.69696659  1
  H  H79  1  0.61992498  0.75506775  0.78571018  1
  H  H80  1  0.67479730  0.62355161  0.77797205  1
  H  H81  1  0.80869135  0.83225037  0.80591003  1
  H  H82  1  0.86640085  0.70148232  0.79207783  1
  H  H83  1  0.84075621  0.73274995  0.90963815  1
  H  H84  1  0.76070774  0.62966004  0.88417206  1
  H  H85  1  0.70444341  0.74908467  0.89947434  1
  H  H86  1  0.76031942  0.56511713  0.67485755  1
  H  H87  1  0.78395990  0.59627288  0.55415522  1
  Pb  Pb88  1  0.01905961  0.99528607  0.99852713  1
  Pb  Pb89  1  0.00976439  0.49045490  0.98607979  1
  Pb  Pb90  1  0.49911106  0.99135821  0.99900344  1
  Pb  Pb91  1  0.51620180  0.50275005  0.01984814  1
  C  C92  1  0.27605064  0.35635768  0.81101992  1
  C  C93  1  0.30045768  0.31703858  0.74151897  1
  C  C94  1  0.20561275  0.25137128  0.71092235  1
  C  C95  1  0.22802623  0.21957236  0.64072190  1
  C  C96  1  0.27568314  0.12553598  0.61863767  1
  C  C97  1  0.28441965  0.12091681  0.54854719  1
  C  C98  1  0.24438957  0.21220240  0.51649136  1
  C  C99  1  0.23435628  0.23197848  0.44496953  1
  C  C100  1  0.20119870  0.14612195  0.40396278  1
  C  C101  1  0.18821790  0.16308516  0.33607076  1
  C  C102  1  0.20775943  0.26583884  0.30695918  1
  C  C103  1  0.18845063  0.28514701  0.23419543  1
  C  C104  1  0.28589887  0.25438649  0.19048320  1
  C  C105  1  0.24249267  0.35109818  0.34746543  1
  C  C106  1  0.25532240  0.33475288  0.41551114  1
  C  C107  1  0.35902100  0.72661285  0.80911765  1
  C  C108  1  0.31641880  0.69990947  0.74077268  1
  C  C109  1  0.25233972  0.79342378  0.70836471  1
  C  C110  1  0.21972736  0.77132024  0.63845193  1
  C  C111  1  0.12304668  0.72498105  0.61653470  1
  C  C112  1  0.11886289  0.71625468  0.54655276  1
  C  C113  1  0.21295556  0.75499180  0.51467613  1
  C  C114  1  0.23399595  0.76651922  0.44326723  1
  C  C115  1  0.14883032  0.80184736  0.40148149  1
  C  C116  1  0.16725197  0.81710459  0.33371537  1
  C  C117  1  0.27091492  0.79788684  0.30552406  1
  C  C118  1  0.29041619  0.81494597  0.23219655  1
  C  C119  1  0.25126632  0.71542955  0.19481604  1
  C  C120  1  0.35527502  0.76093816  0.34684267  1
  C  C121  1  0.33756966  0.74580846  0.41476221  1
  C  C122  1  0.64151075  0.21658651  0.18718890  1
  C  C123  1  0.68150852  0.19601092  0.25741272  1
  C  C124  1  0.74904778  0.29039013  0.28649306  1
  C  C125  1  0.78174394  0.26972969  0.35713675  1
  C  C126  1  0.87742753  0.22401588  0.38019620  1
  C  C127  1  0.88153046  0.21577138  0.45037822  1
  C  C128  1  0.78819596  0.25418898  0.48143682  1
  C  C129  1  0.76717287  0.26334242  0.55280231  1
  C  C130  1  0.85298595  0.29772777  0.59444520  1
  C  C131  1  0.83539695  0.30838212  0.66227619  1
  C  C132  1  0.73196307  0.28493366  0.69075077  1
  C  C133  1  0.71195051  0.30128951  0.76348282  1
  C  C134  1  0.74660078  0.20608767  0.80756186  1
  C  C135  1  0.64652747  0.25038193  0.64955891  1
  C  C136  1  0.66345949  0.23992328  0.58150579  1
  C  C137  1  0.78062541  0.64410839  0.19046382  1
  C  C138  1  0.80351249  0.68323729  0.26005648  1
  C  C139  1  0.70875601  0.74768601  0.29079282  1
  C  C140  1  0.73000657  0.77998048  0.36082777  1
  C  C141  1  0.77764856  0.87506632  0.38279962  1
  C  C142  1  0.78618947  0.87900778  0.45284762  1
  C  C143  1  0.74608418  0.78618538  0.48483585  1
  C  C144  1  0.73535797  0.76509555  0.55632916  1
  C  C145  1  0.70083128  0.84934052  0.59789073  1
  C  C146  1  0.68758822  0.83144186  0.66578466  1
  C  C147  1  0.70833476  0.72929759  0.69454017  1
  C  C148  1  0.69214521  0.71029143  0.76792124  1
  C  C149  1  0.79233640  0.74429700  0.80816329  1
  C  C150  1  0.74343435  0.64531750  0.65342365  1
  C  C151  1  0.75648571  0.66267196  0.58530641  1
  S  S152  1  0.19593750  0.30366491  0.57424834  1
  S  S153  1  0.30674477  0.80181484  0.57230728  1
  S  S154  1  0.69570158  0.30084714  0.42276295  1
  S  S155  1  0.69759660  0.69435042  0.42720345  1
  I  I156  1  0.25569667  0.99461998  0.06183270  1
  I  I157  1  0.26396179  0.50830158  0.96758270  1
  I  I158  1  0.75769623  0.00652349  0.97775894  1
  I  I159  1  0.76307998  0.47071030  0.04411767  1
  I  I160  1  0.01296089  0.24262959  0.02675442  1
  I  I161  1  0.97768579  0.74277806  -0.00073440  1
  I  I162  1  0.49914047  0.24758385  0.02213266  1
  I  I163  1  0.51076307  0.75020315  0.96239606  1
  I  I164  1  0.08433153  0.99448770  0.84346859  1
  I  I165  1  0.94183562  0.98144084  0.16012538  1
  I  I166  1  0.98199550  0.49810517  0.82603049  1
  I  I167  1  0.06339970  0.51329673  0.13890324  1
  I  I168  1  0.46440207  0.05473412  0.84053475  1
  I  I169  1  0.55637861  0.91993751  0.14684863  1
  I  I170  1  0.55975292  0.47552957  0.86676947  1
  I  I171  1  0.47663071  0.51204266  0.17713574  1
  N  N172  1  0.26893944  0.26535631  0.86202193  1
  N  N173  1  0.26236115  0.28610838  0.11992269  1
  N  N174  1  0.26837951  0.74410318  0.85931645  1
  N  N175  1  0.28008179  0.72337737  0.12217313  1
  N  N176  1  0.73227227  0.21113570  0.13581743  1
  N  N177  1  0.71989664  0.23109887  0.87853749  1
  N  N178  1  0.77477065  0.73539534  0.14014120  1
  N  N179  1  0.77376507  0.71275695  0.87963625  1
