# generated using pymatgen
data_H20PbC14I4N2O
_symmetry_space_group_name_H-M   'P 1'
_cell_length_a   12.48145011
_cell_length_b   12.54507953
_cell_length_c   18.28552534
_cell_angle_alpha   91.11876844
_cell_angle_beta   90.49400415
_cell_angle_gamma   89.94393094
_symmetry_Int_Tables_number   1
_chemical_formula_structural   H20PbC14I4N2O
_chemical_formula_sum   'H80 Pb4 C56 I16 N8 O4'
_cell_volume   2862.50875285
_cell_formula_units_Z   4
loop_
 _symmetry_equiv_pos_site_id
 _symmetry_equiv_pos_as_xyz
  1  'x, y, z'
loop_
 _atom_site_type_symbol
 _atom_site_label
 _atom_site_symmetry_multiplicity
 _atom_site_fract_x
 _atom_site_fract_y
 _atom_site_fract_z
 _atom_site_occupancy
  H  H0  1  0.18842093  0.18422131  0.87765413  1
  H  H1  1  0.23669989  0.06363041  0.85910481  1
  H  H2  1  0.31757676  0.15993280  0.89174722  1
  H  H3  1  0.30319093  0.26052725  0.78252956  1
  H  H4  1  0.34785087  0.12845042  0.76239823  1
  H  H5  1  0.11403492  0.20386403  0.74751511  1
  H  H6  1  0.16124778  0.07419010  0.72607215  1
  H  H7  1  0.18338191  0.36043388  0.67600785  1
  H  H8  1  0.22895732  0.42103365  0.55268803  1
  H  H9  1  0.31797570  0.47506421  0.44555535  1
  H  H10  1  0.36454688  0.45160808  0.29991638  1
  H  H11  1  0.39086535  0.15187132  0.25905487  1
  H  H12  1  0.38984963  0.27488788  0.21272625  1
  H  H13  1  0.18968899  0.14265747  0.25060767  1
  H  H14  1  0.18775952  0.26472154  0.20229513  1
  H  H15  1  0.31002203  0.07240799  0.15238931  1
  H  H16  1  0.18204410  0.09780643  0.12751493  1
  H  H17  1  0.28281737  0.17974118  0.10335625  1
  H  H18  1  0.28924466  0.09539550  0.48417553  1
  H  H19  1  0.24281403  0.03496542  0.60789591  1
  H  H20  1  0.18359347  0.80762298  0.88037189  1
  H  H21  1  0.06099466  0.76563738  0.85976006  1
  H  H22  1  0.15362539  0.67979917  0.88931180  1
  H  H23  1  0.25858153  0.69645876  0.78114801  1
  H  H24  1  0.12618424  0.65312801  0.75965440  1
  H  H25  1  0.20394792  0.88534003  0.75133349  1
  H  H26  1  0.07319792  0.84032682  0.72906377  1
  H  H27  1  0.36066383  0.81885275  0.67701203  1
  H  H28  1  0.42224226  0.77344519  0.55246209  1
  H  H29  1  0.47824204  0.68799665  0.44356417  1
  H  H30  1  0.45661137  0.64340696  0.29662199  1
  H  H31  1  0.15493092  0.61133604  0.25837104  1
  H  H32  1  0.27761506  0.61338992  0.21023873  1
  H  H33  1  0.14303247  0.81156726  0.25269444  1
  H  H34  1  0.26517278  0.81424546  0.20294123  1
  H  H35  1  0.07158515  0.69197943  0.15344962  1
  H  H36  1  0.09866019  0.81847350  0.12925539  1
  H  H37  1  0.17972486  0.71609809  0.10386654  1
  H  H38  1  0.09573077  0.71083215  0.48482453  1
  H  H39  1  0.03443328  0.75664540  0.60978173  1
  H  H40  1  0.81198707  0.32222281  0.12077643  1
  H  H41  1  0.93637212  0.29137259  0.14402911  1
  H  H42  1  0.85480941  0.19822503  0.10761145  1
  H  H43  1  0.73930434  0.20845941  0.21429001  1
  H  H44  1  0.87143136  0.16202503  0.23384307  1
  H  H45  1  0.79535815  0.39346168  0.25619079  1
  H  H46  1  0.92541362  0.34551470  0.27594785  1
  H  H47  1  0.63702181  0.32018584  0.32599522  1
  H  H48  1  0.57569397  0.27134006  0.44863369  1
  H  H49  1  0.52139910  0.18271099  0.55573638  1
  H  H50  1  0.54455274  0.14092013  0.70174848  1
  H  H51  1  0.84734613  0.11793935  0.74037689  1
  H  H52  1  0.72420436  0.11994293  0.78842069  1
  H  H53  1  0.85559843  0.31747982  0.74645045  1
  H  H54  1  0.73215436  0.32242749  0.79457064  1
  H  H55  1  0.92142318  0.20199040  0.84949678  1
  H  H56  1  0.90350009  0.33348340  0.86556291  1
  H  H57  1  0.81517377  0.24395170  0.89690081  1
  H  H58  1  0.90299084  0.21041907  0.51438864  1
  H  H59  1  0.96382032  0.25979963  0.39118358  1
  H  H60  1  0.67997088  0.81262537  0.11921218  1
  H  H61  1  0.71019339  0.93649419  0.14434821  1
  H  H62  1  0.80444697  0.85606800  0.10930543  1
  H  H63  1  0.79440512  0.74061585  0.21482225  1
  H  H64  1  0.83999939  0.87208517  0.23656247  1
  H  H65  1  0.60734236  0.79607288  0.25331085  1
  H  H66  1  0.65501235  0.92531461  0.27496838  1
  H  H67  1  0.68142720  0.63859163  0.32377880  1
  H  H68  1  0.72975347  0.57835062  0.44730276  1
  H  H69  1  0.81784591  0.52497668  0.55527178  1
  H  H70  1  0.85925767  0.54764578  0.70246646  1
  H  H71  1  0.88295516  0.84938523  0.74391425  1
  H  H72  1  0.88093119  0.72643271  0.79086282  1
  H  H73  1  0.68169152  0.85574101  0.74498059  1
  H  H74  1  0.67834500  0.73424448  0.79360359  1
  H  H75  1  0.79378467  0.92760224  0.84954369  1
  H  H76  1  0.66293756  0.90156090  0.86513910  1
  H  H77  1  0.76064072  0.82041847  0.89652431  1
  H  H78  1  0.78924562  0.90449124  0.51591650  1
  H  H79  1  0.74000879  0.96429739  0.39200218  1
  Pb  Pb80  1  0.99744592  0.00257040  0.00510259  1
  Pb  Pb81  1  0.00139754  0.50178340  -0.00002337  1
  Pb  Pb82  1  0.49466773  -0.00120167  0.99890611  1
  Pb  Pb83  1  0.50978173  0.50486938  0.99677322  1
  C  C84  1  0.27859097  0.17663626  0.77923498  1
  C  C85  1  0.18388339  0.15886532  0.72706777  1
  C  C86  1  0.21074207  0.19359961  0.65095192  1
  C  C87  1  0.20760694  0.30219441  0.63411642  1
  C  C88  1  0.23342188  0.33638924  0.56472343  1
  C  C89  1  0.26377359  0.26278739  0.50941456  1
  C  C90  1  0.29202006  0.30164232  0.43789887  1
  C  C91  1  0.31569220  0.40178716  0.41314497  1
  C  C92  1  0.33998342  0.39054603  0.33744189  1
  C  C93  1  0.33008127  0.28475680  0.31967062  1
  C  C94  1  0.34381403  0.22473174  0.24993610  1
  C  C95  1  0.23620143  0.19423091  0.21491589  1
  C  C96  1  0.26637847  0.15370625  0.52618289  1
  C  C97  1  0.24031476  0.12000592  0.59610422  1
  C  C98  1  0.17440488  0.72148321  0.77856930  1
  C  C99  1  0.15799801  0.81683118  0.72917180  1
  C  C100  1  0.19327287  0.79072419  0.65228356  1
  C  C101  1  0.30245687  0.79446364  0.63497083  1
  C  C102  1  0.33719192  0.76862061  0.56493457  1
  C  C103  1  0.26369512  0.73774953  0.50951979  1
  C  C104  1  0.30350129  0.71029617  0.43727054  1
  C  C105  1  0.40482940  0.68925288  0.41144624  1
  C  C106  1  0.39458684  0.66661670  0.33511444  1
  C  C107  1  0.28800144  0.67424666  0.31814901  1
  C  C108  1  0.22726521  0.65905094  0.24881211  1
  C  C109  1  0.19496953  0.76550046  0.21564186  1
  C  C110  1  0.15402232  0.73438090  0.52681089  1
  C  C111  1  0.11978342  0.76042593  0.59735485  1
  C  C112  1  0.82373635  0.23204999  0.21907642  1
  C  C113  1  0.84026534  0.32311185  0.27445552  1
  C  C114  1  0.80462488  0.29202048  0.34955876  1
  C  C115  1  0.69531017  0.29418926  0.36690538  1
  C  C116  1  0.66079660  0.26662935  0.43601738  1
  C  C117  1  0.73467394  0.23566852  0.49043701  1
  C  C118  1  0.69564889  0.20756091  0.56205693  1
  C  C119  1  0.59502233  0.18466129  0.58763122  1
  C  C120  1  0.60627394  0.16277029  0.66343105  1
  C  C121  1  0.71260504  0.17327449  0.68036277  1
  C  C122  1  0.77361414  0.16425362  0.74977763  1
  C  C123  1  0.80307208  0.27327478  0.78295155  1
  C  C124  1  0.84438465  0.23360216  0.47309059  1
  C  C125  1  0.87829992  0.26124814  0.40347086  1
  C  C126  1  0.76996318  0.82448250  0.21981628  1
  C  C127  1  0.67797561  0.84068285  0.27328605  1
  C  C128  1  0.70864470  0.80552721  0.34888187  1
  C  C129  1  0.70672226  0.69689784  0.36562559  1
  C  C130  1  0.73397509  0.66297397  0.43518620  1
  C  C131  1  0.76466820  0.73689326  0.49055741  1
  C  C132  1  0.79318389  0.69829970  0.56245837  1
  C  C133  1  0.81593301  0.59813293  0.58780228  1
  C  C134  1  0.83781788  0.60920718  0.66412231  1
  C  C135  1  0.82777732  0.71511650  0.68160573  1
  C  C136  1  0.83664595  0.77585340  0.75169809  1
  C  C137  1  0.72681770  0.80503320  0.78259626  1
  C  C138  1  0.76632326  0.84592215  0.47384479  1
  C  C139  1  0.73877916  0.87925356  0.40382997  1
  I  I140  1  0.24364665  0.92693641  0.99409885  1
  I  I141  1  0.24347260  0.58399261  0.00232319  1
  I  I142  1  0.75016161  0.07699147  0.00398171  1
  I  I143  1  0.75418764  0.42155170  -0.00013992  1
  I  I144  1  0.07221226  0.25107560  0.00324882  1
  I  I145  1  0.92100410  0.75779819  0.99521277  1
  I  I146  1  0.41854992  0.24057818  0.00086796  1
  I  I147  1  0.57683420  0.75155219  0.00349971  1
  I  I148  1  0.99330783  0.00761553  0.83498972  1
  I  I149  1  0.00919604  0.99978385  0.17991689  1
  I  I150  1  0.01285105  0.48465094  0.82447485  1
  I  I151  1  0.98005784  0.52107988  0.17152925  1
  I  I152  1  0.48506700  0.97206921  0.82323146  1
  I  I153  1  0.47840971  0.97861244  0.17014210  1
  I  I154  1  0.50897183  0.49814191  0.82665002  1
  I  I155  1  0.52478124  0.48965715  0.17395419  1
  N  N156  1  0.25346734  0.14388078  0.85576970  1
  N  N157  1  0.25293217  0.13295223  0.14498628  1
  N  N158  1  0.14081320  0.74524005  0.85584691  1
  N  N159  1  0.13290110  0.74781748  0.14607179  1
  N  N160  1  0.85890565  0.26253744  0.14399744  1
  N  N161  1  0.86388048  0.26167621  0.85334545  1
  N  N162  1  0.73968645  0.85957809  0.14430248  1
  N  N163  1  0.73738939  0.86726695  0.85310645  1
  O  O164  1  0.30058863  0.22852378  0.38048866  1
  O  O165  1  0.23065614  0.70104842  0.38004630  1
  O  O166  1  0.76906151  0.20050225  0.61897826  1
  O  O167  1  0.80064137  0.77139770  0.62000946  1
