# generated using pymatgen
data_H21PbC14I4N3
_symmetry_space_group_name_H-M   'P 1'
_cell_length_a   12.25594216
_cell_length_b   12.13479128
_cell_length_c   18.87626217
_cell_angle_alpha   88.84460071
_cell_angle_beta   90.16863956
_cell_angle_gamma   89.00407702
_symmetry_Int_Tables_number   1
_chemical_formula_structural   H21PbC14I4N3
_chemical_formula_sum   'H84 Pb4 C56 I16 N12'
_cell_volume   2806.32998091
_cell_formula_units_Z   4
loop_
 _symmetry_equiv_pos_site_id
 _symmetry_equiv_pos_as_xyz
  1  'x, y, z'
loop_
 _atom_site_type_symbol
 _atom_site_label
 _atom_site_symmetry_multiplicity
 _atom_site_fract_x
 _atom_site_fract_y
 _atom_site_fract_z
 _atom_site_occupancy
  H  H0  1  0.16112118  0.18293190  0.85103462  1
  H  H1  1  0.22750691  0.26850825  0.90564720  1
  H  H2  1  0.29685580  0.16961924  0.86245340  1
  H  H3  1  0.33067321  0.34777193  0.81206568  1
  H  H4  1  0.18861984  0.36985541  0.79866190  1
  H  H5  1  0.31913544  0.17625682  0.73586188  1
  H  H6  1  0.18478739  0.21688334  0.71159253  1
  H  H7  1  0.25893737  0.39616506  0.66010334  1
  H  H8  1  0.39102509  0.35403278  0.68726965  1
  H  H9  1  0.40563713  0.10226218  0.63121606  1
  H  H10  1  0.37506123  0.05585665  0.49185872  1
  H  H11  1  0.29022643  0.41249292  0.40570628  1
  H  H12  1  0.23207843  0.43163693  0.28089986  1
  H  H13  1  0.11046368  0.20579203  0.17598936  1
  H  H14  1  0.12890572  0.35125254  0.18060882  1
  H  H15  1  0.24645299  0.28480586  0.09432334  1
  H  H16  1  0.29697549  0.18239407  0.14509577  1
  H  H17  1  0.32616173  0.31570628  0.16252095  1
  H  H18  1  0.16417343  0.08425281  0.27663969  1
  H  H19  1  0.22057513  0.06453153  0.40228129  1
  H  H20  1  0.24381421  0.37251172  0.53104667  1
  H  H21  1  0.20196980  0.84884698  0.84977875  1
  H  H22  1  0.28625177  0.77583788  0.90405374  1
  H  H23  1  0.17991207  0.71600314  0.86503576  1
  H  H24  1  0.35444743  0.66438595  0.81323875  1
  H  H25  1  0.37671580  0.80611966  0.79325271  1
  H  H26  1  0.18054576  0.67606891  0.73898033  1
  H  H27  1  0.21552309  0.81077569  0.71084181  1
  H  H28  1  0.39337004  0.73318308  0.66120442  1
  H  H29  1  0.35475959  0.60047283  0.68946249  1
  H  H30  1  0.10239355  0.59383263  0.63093765  1
  H  H31  1  0.05541334  0.62739738  0.49090089  1
  H  H32  1  0.40940535  0.70314958  0.40903073  1
  H  H33  1  0.42791978  0.76219821  0.28365654  1
  H  H34  1  0.20086984  0.88779556  0.17436723  1
  H  H35  1  0.34494315  0.86638777  0.17951820  1
  H  H36  1  0.26236692  0.75143884  0.09342495  1
  H  H37  1  0.18240798  0.68984022  0.15363013  1
  H  H38  1  0.31803814  0.67111819  0.15789060  1
  H  H39  1  0.08322529  0.83599203  0.27297832  1
  H  H40  1  0.06452890  0.78103630  0.39948917  1
  H  H41  1  0.36770841  0.75070744  0.53290608  1
  H  H42  1  0.80920967  0.33189198  0.14758406  1
  H  H43  1  0.72766969  0.26279783  0.09352533  1
  H  H44  1  0.82693846  0.19574091  0.13991704  1
  H  H45  1  0.65102935  0.15812751  0.18815134  1
  H  H46  1  0.62606908  0.30200686  0.19857257  1
  H  H47  1  0.82046847  0.17375556  0.26532748  1
  H  H48  1  0.78007996  0.31018681  0.28571120  1
  H  H49  1  0.60401994  0.23502789  0.33786726  1
  H  H50  1  0.64913868  0.10076295  0.31690227  1
  H  H51  1  0.90640224  0.11645696  0.37066670  1
  H  H52  1  0.95259592  0.14945800  0.50897601  1
  H  H53  1  0.59067680  0.20631249  0.59393242  1
  H  H54  1  0.57349524  0.25715964  0.71906086  1
  H  H55  1  0.79874175  0.37699887  0.82648162  1
  H  H56  1  0.65546373  0.35418267  0.82352894  1
  H  H57  1  0.74099968  0.23197917  0.90691924  1
  H  H58  1  0.82694891  0.17811738  0.84651748  1
  H  H59  1  0.69124154  0.15887082  0.84127468  1
  H  H60  1  0.91464104  0.33575427  0.72595689  1
  H  H61  1  0.93275627  0.28649903  0.59969622  1
  H  H62  1  0.62350227  0.24022977  0.47004485  1
  H  H63  1  0.66779966  0.81728220  0.14524804  1
  H  H64  1  0.73428038  0.72669345  0.09225804  1
  H  H65  1  0.80199866  0.82551712  0.13496337  1
  H  H66  1  0.83375806  0.64481200  0.18848548  1
  H  H67  1  0.69039060  0.63267896  0.20111191  1
  H  H68  1  0.82394061  0.82206056  0.26096959  1
  H  H69  1  0.68981151  0.78784920  0.28526474  1
  H  H70  1  0.76443571  0.60534613  0.33794213  1
  H  H71  1  0.89676062  0.64612334  0.31372519  1
  H  H72  1  0.89203954  0.90252751  0.36863357  1
  H  H73  1  0.85997061  0.94709388  0.50704160  1
  H  H74  1  0.79347490  0.58506317  0.59208262  1
  H  H75  1  0.73660321  0.56346419  0.71630170  1
  H  H76  1  0.61497954  0.78828079  0.82519295  1
  H  H77  1  0.63880131  0.64356227  0.82010764  1
  H  H78  1  0.75812472  0.71277070  0.90406840  1
  H  H79  1  0.80242949  0.81398350  0.85130848  1
  H  H80  1  0.83742971  0.68148782  0.83496234  1
  H  H81  1  0.66386687  0.91208970  0.72502524  1
  H  H82  1  0.71801619  0.93408642  0.59929174  1
  H  H83  1  0.75145265  0.62586703  0.46824829  1
  Pb  Pb84  1  0.98437456  0.01316755  1.00059436  1
  Pb  Pb85  1  0.99566203  0.52591010  0.99904898  1
  Pb  Pb86  1  0.49555502  0.01505003  0.00268959  1
  Pb  Pb87  1  0.48269059  0.50439289  0.00438535  1
  C  C88  1  0.25428142  0.30700436  0.79847536  1
  C  C89  1  0.26426429  0.24839364  0.72835405  1
  C  C90  1  0.31166040  0.32272840  0.66944606  1
  C  C91  1  0.32427536  0.26047549  0.60219005  1
  C  C92  1  0.36741333  0.15539301  0.59098440  1
  C  C93  1  0.35069000  0.13061356  0.51869553  1
  C  C94  1  0.29820035  0.22110711  0.48620927  1
  C  C95  1  0.26153894  0.23637742  0.41316168  1
  C  C96  1  0.26193514  0.34002569  0.37808665  1
  C  C97  1  0.22979211  0.35093980  0.30744998  1
  C  C98  1  0.19635074  0.25874730  0.26978676  1
  C  C99  1  0.16619531  0.27014788  0.19299212  1
  C  C100  1  0.19359196  0.15579893  0.30477557  1
  C  C101  1  0.22540004  0.14465798  0.37535053  1
  C  C102  1  0.31403981  0.74260887  0.79710402  1
  C  C103  1  0.25002473  0.73061173  0.72891493  1
  C  C104  1  0.32179321  0.68108084  0.67053856  1
  C  C105  1  0.25914954  0.66997247  0.60306406  1
  C  C106  1  0.15527637  0.62967343  0.59088808  1
  C  C107  1  0.13015140  0.64823254  0.51813744  1
  C  C108  1  0.21935714  0.69858323  0.48636665  1
  C  C109  1  0.23481724  0.73567380  0.41331504  1
  C  C110  1  0.33748460  0.73348004  0.37987625  1
  C  C111  1  0.34794911  0.76553339  0.30893624  1
  C  C112  1  0.25626453  0.80042298  0.26928119  1
  C  C113  1  0.26572078  0.82996757  0.19203650  1
  C  C114  1  0.15445860  0.80557637  0.30287234  1
  C  C115  1  0.14376799  0.77425533  0.37367812  1
  C  C116  1  0.68928739  0.23663468  0.20083477  1
  C  C117  1  0.74893663  0.22897837  0.27126558  1
  C  C118  1  0.67785876  0.18304416  0.33146358  1
  C  C119  1  0.74199430  0.17767707  0.39898144  1
  C  C120  1  0.85088987  0.14826818  0.41033766  1
  C  C121  1  0.87533711  0.16649067  0.48238829  1
  C  C122  1  0.78090811  0.20641162  0.51479324  1
  C  C123  1  0.76440583  0.23985867  0.58755132  1
  C  C124  1  0.66253820  0.23512255  0.62197345  1
  C  C125  1  0.65262366  0.26327976  0.69294416  1
  C  C126  1  0.74371360  0.29683283  0.73173771  1
  C  C127  1  0.73578898  0.31989276  0.80926410  1
  C  C128  1  0.84430432  0.30551670  0.69700539  1
  C  C129  1  0.85443817  0.27795519  0.62628949  1
  C  C130  1  0.75822221  0.69080313  0.20046822  1
  C  C131  1  0.76903587  0.75216133  0.26951102  1
  C  C132  1  0.81583246  0.67821713  0.32977041  1
  C  C133  1  0.82341359  0.74071891  0.39710392  1
  C  C134  1  0.85827687  0.84739818  0.40855348  1
  C  C135  1  0.84065062  0.87116089  0.48080091  1
  C  C136  1  0.79561939  0.77863791  0.51324276  1
  C  C137  1  0.76075035  0.76176423  0.58615663  1
  C  C138  1  0.76333444  0.65720821  0.62020549  1
  C  C139  1  0.73245148  0.64504447  0.69083726  1
  C  C140  1  0.69841731  0.73672136  0.72974838  1
  C  C141  1  0.67264517  0.72462822  0.80699683  1
  C  C142  1  0.69332844  0.84064952  0.69581096  1
  C  C143  1  0.72364766  0.85303137  0.62524068  1
  I  I144  1  0.24292032  0.04955867  0.02823561  1
  I  I145  1  0.24036316  0.42940058  0.99104018  1
  I  I146  1  0.74297548  0.94236210  0.97343267  1
  I  I147  1  0.73945675  0.56635382  0.00874682  1
  I  I148  1  0.95374682  0.26914880  0.00725762  1
  I  I149  1  0.07249219  0.76861409  -0.00022250  1
  I  I150  1  0.58149661  0.26012251  0.00568890  1
  I  I151  1  0.44331260  0.76117443  0.98678604  1
  I  I152  1  0.00947726  0.04311430  0.82883991  1
  I  I153  1  0.93876285  0.00140386  0.16891735  1
  I  I154  1  0.99951018  0.54924497  0.82519880  1
  I  I155  1  0.02765781  0.54688182  0.16757489  1
  I  I156  1  0.48119800  0.05012046  0.83086836  1
  I  I157  1  0.53534944  0.97157142  0.16933487  1
  I  I158  1  0.48711813  0.48878517  0.83843310  1
  I  I159  1  0.45151876  0.49954756  0.17831187  1
  N  N160  1  0.23283629  0.22685501  0.85807496  1
  N  N161  1  0.26602725  0.26193194  0.14639830  1
  N  N162  1  0.28448558  0.29949312  0.53799835  1
  N  N163  1  0.24064464  0.77321556  0.85707710  1
  N  N164  1  0.25664264  0.72958204  0.14654708  1
  N  N165  1  0.29712553  0.70940313  0.53903705  1
  N  N166  1  0.76853513  0.25900721  0.14235123  1
  N  N167  1  0.75072023  0.21528125  0.85358176  1
  N  N168  1  0.70063292  0.21117985  0.46288498  1
  N  N169  1  0.73912830  0.76958311  0.13941586  1
  N  N170  1  0.77437128  0.73441102  0.85158121  1
  N  N171  1  0.78748137  0.69975256  0.46134094  1
