# generated using pymatgen
data_H20PbC14I4N2O
_symmetry_space_group_name_H-M   'P 1'
_cell_length_a   12.54506176
_cell_length_b   12.53349822
_cell_length_c   18.72263701
_cell_angle_alpha   89.35523074
_cell_angle_beta   90.28065500
_cell_angle_gamma   89.59092956
_symmetry_Int_Tables_number   1
_chemical_formula_structural   H20PbC14I4N2O
_chemical_formula_sum   'H80 Pb4 C56 I16 N8 O4'
_cell_volume   2943.52800923
_cell_formula_units_Z   4
loop_
 _symmetry_equiv_pos_site_id
 _symmetry_equiv_pos_as_xyz
  1  'x, y, z'
loop_
 _atom_site_type_symbol
 _atom_site_label
 _atom_site_symmetry_multiplicity
 _atom_site_fract_x
 _atom_site_fract_y
 _atom_site_fract_z
 _atom_site_occupancy
  H  H0  1  0.20642171  0.25355171  0.87973294  1
  H  H1  1  0.27411256  0.36013484  0.90445598  1
  H  H2  1  0.33965684  0.25452000  0.87301092  1
  H  H3  1  0.32754833  0.40807280  0.79057505  1
  H  H4  1  0.18658645  0.39142452  0.79027122  1
  H  H5  1  0.20728428  0.21318327  0.73352648  1
  H  H6  1  0.34753242  0.21835574  0.74365095  1
  H  H7  1  0.21712453  0.38280372  0.65483127  1
  H  H8  1  0.35715245  0.37496876  0.66102807  1
  H  H9  1  0.31044459  0.08736014  0.64164796  1
  H  H10  1  0.28873313  0.03624377  0.50093314  1
  H  H11  1  0.26101341  0.40562946  0.42256906  1
  H  H12  1  0.22860874  0.44405113  0.29423908  1
  H  H13  1  0.13710172  0.24085307  0.16464413  1
  H  H14  1  0.15495240  0.37980149  0.17969414  1
  H  H15  1  0.34614410  0.35509384  0.16204412  1
  H  H16  1  0.27410772  0.31630070  0.09130823  1
  H  H17  1  0.32842439  0.22515762  0.14543994  1
  H  H18  1  0.19408052  0.10733653  0.25535658  1
  H  H19  1  0.22784322  0.06841117  0.38274577  1
  H  H20  1  0.25838126  0.79921468  0.87668297  1
  H  H21  1  0.36780305  0.73652512  0.90530891  1
  H  H22  1  0.26620131  0.66536640  0.87583526  1
  H  H23  1  0.41547838  0.67388489  0.79255558  1
  H  H24  1  0.39735951  0.81527970  0.78840684  1
  H  H25  1  0.21686536  0.79218563  0.73363476  1
  H  H26  1  0.22589230  0.65202529  0.74508112  1
  H  H27  1  0.38470091  0.78253868  0.65477062  1
  H  H28  1  0.37878480  0.64266563  0.66123897  1
  H  H29  1  0.08879070  0.69350603  0.64097039  1
  H  H30  1  0.03625604  0.71607115  0.50024258  1
  H  H31  1  0.40504656  0.73810970  0.42383788  1
  H  H32  1  0.44236700  0.76762118  0.29524704  1
  H  H33  1  0.23963087  0.85761486  0.16230809  1
  H  H34  1  0.37794378  0.83443976  0.17805559  1
  H  H35  1  0.34603934  0.64326107  0.16591872  1
  H  H36  1  0.31013354  0.71243937  0.09317495  1
  H  H37  1  0.21571306  0.66555412  0.14892545  1
  H  H38  1  0.10605638  0.80540473  0.25341886  1
  H  H39  1  0.06805158  0.77604630  0.38125083  1
  H  H40  1  0.74914115  0.27706127  0.12275235  1
  H  H41  1  0.63302034  0.22747623  0.09615782  1
  H  H42  1  0.72591988  0.14547010  0.12789104  1
  H  H43  1  0.58374937  0.17321613  0.21215527  1
  H  H44  1  0.60848435  0.31338807  0.20918296  1
  H  H45  1  0.78582416  0.28548902  0.26576787  1
  H  H46  1  0.77534648  0.14523554  0.25738055  1
  H  H47  1  0.61710461  0.28077633  0.34436532  1
  H  H48  1  0.62315841  0.14051514  0.34107990  1
  H  H49  1  0.91282306  0.18721003  0.36110267  1
  H  H50  1  0.96372114  0.20979643  0.50169809  1
  H  H51  1  0.59378660  0.23715362  0.57554774  1
  H  H52  1  0.55567615  0.26251812  0.70407351  1
  H  H53  1  0.75664146  0.34357897  0.83857786  1
  H  H54  1  0.61971975  0.31602130  0.82388618  1
  H  H55  1  0.65234683  0.13024224  0.83282106  1
  H  H56  1  0.70921735  0.18549689  0.90356744  1
  H  H57  1  0.78612808  0.14341373  0.83730659  1
  H  H58  1  0.89123463  0.30017302  0.74634567  1
  H  H59  1  0.93012159  0.27338829  0.61862423  1
  H  H60  1  0.72536117  0.75973649  0.12658277  1
  H  H61  1  0.77038275  0.64315632  0.09464334  1
  H  H62  1  0.85596427  0.73081376  0.12721434  1
  H  H63  1  0.83280282  0.58610383  0.20958697  1
  H  H64  1  0.69164104  0.60799746  0.20797983  1
  H  H65  1  0.71461087  0.78488625  0.26455996  1
  H  H66  1  0.85498489  0.77500515  0.25711911  1
  H  H67  1  0.71967457  0.61697436  0.34518713  1
  H  H68  1  0.86004419  0.62050746  0.34137838  1
  H  H69  1  0.81435506  0.91105326  0.35885618  1
  H  H70  1  0.79140176  0.96242320  0.49908807  1
  H  H71  1  0.76133317  0.59256281  0.57534692  1
  H  H72  1  0.73364378  0.55187555  0.70357959  1
  H  H73  1  0.64887291  0.74973939  0.83740258  1
  H  H74  1  0.68163151  0.61354300  0.82337497  1
  H  H75  1  0.86865971  0.65536335  0.83253872  1
  H  H76  1  0.80666823  0.70180140  0.90390258  1
  H  H77  1  0.84285110  0.78724018  0.84027212  1
  H  H78  1  0.69933511  0.88827277  0.74550153  1
  H  H79  1  0.72836887  0.92926528  0.61817125  1
  Pb  Pb80  1  0.00061186  1.00060458  1.00004910  1
  Pb  Pb81  1  0.01150389  0.50118166  0.99878837  1
  Pb  Pb82  1  0.50400222  0.98986236  0.99460317  1
  Pb  Pb83  1  0.51221455  0.49108019  0.01391093  1
  C  C84  1  0.26342811  0.34897818  0.79292516  1
  C  C85  1  0.27562966  0.26777813  0.73415123  1
  C  C86  1  0.28413410  0.32606387  0.66192765  1
  C  C87  1  0.28424350  0.25040072  0.60137833  1
  C  C88  1  0.29563005  0.14183881  0.59719236  1
  C  C89  1  0.28425082  0.11529965  0.52374146  1
  C  C90  1  0.26669841  0.20935648  0.48672292  1
  C  C91  1  0.24860500  0.23422750  0.41185511  1
  C  C92  1  0.24789443  0.34019644  0.38577336  1
  C  C93  1  0.22996141  0.36151943  0.31356739  1
  C  C94  1  0.21196814  0.27805748  0.26573556  1
  C  C95  1  0.19017741  0.30015908  0.18830363  1
  C  C96  1  0.21182231  0.17257255  0.29166564  1
  C  C97  1  0.23007934  0.15078703  0.36355021  1
  C  C98  1  0.35595916  0.73858996  0.79310321  1
  C  C99  1  0.27319034  0.72438645  0.73465388  1
  C  C100  1  0.32890145  0.71569367  0.66216706  1
  C  C101  1  0.25171584  0.71643667  0.60162263  1
  C  C102  1  0.14310880  0.70695569  0.59690557  1
  C  C103  1  0.11575915  0.71887151  0.52320751  1
  C  C104  1  0.20928350  0.73484813  0.48658749  1
  C  C105  1  0.23373852  0.75257983  0.41178092  1
  C  C106  1  0.33938608  0.75162567  0.38640010  1
  C  C107  1  0.36006585  0.76786329  0.31404549  1
  C  C108  1  0.27644713  0.78563601  0.26523558  1
  C  C109  1  0.29776353  0.80272686  0.18719539  1
  C  C110  1  0.17141940  0.78834236  0.29061511  1
  C  C111  1  0.15020243  0.77206391  0.36258687  1
  C  C112  1  0.64609162  0.23406806  0.20788115  1
  C  C113  1  0.72895008  0.21889707  0.26632290  1
  C  C114  1  0.67282130  0.21287732  0.33866787  1
  C  C115  1  0.74950268  0.21351025  0.39923605  1
  C  C116  1  0.85808275  0.20228331  0.40460100  1
  C  C117  1  0.88456489  0.21432986  0.47820625  1
  C  C118  1  0.79057561  0.23236789  0.51393443  1
  C  C119  1  0.76498622  0.25104460  0.58811255  1
  C  C120  1  0.65907127  0.25042906  0.61298224  1
  C  C121  1  0.63788277  0.26497934  0.68519096  1
  C  C122  1  0.72117760  0.28099186  0.73402670  1
  C  C123  1  0.70107506  0.28878263  0.81257844  1
  C  C124  1  0.82624028  0.28479186  0.70895669  1
  C  C125  1  0.84800651  0.26997453  0.63721248  1
  C  C126  1  0.76964580  0.64724465  0.20680352  1
  C  C127  1  0.78208341  0.72811750  0.26590487  1
  C  C128  1  0.78780873  0.67140176  0.33868036  1
  C  C129  1  0.78724533  0.74814268  0.39864219  1
  C  C130  1  0.79880479  0.85661822  0.40300100  1
  C  C131  1  0.78640210  0.88333560  0.47637087  1
  C  C132  1  0.76789829  0.78959254  0.51310755  1
  C  C133  1  0.74886621  0.76383782  0.58759246  1
  C  C134  1  0.74835995  0.65736791  0.61271314  1
  C  C135  1  0.73261293  0.63475455  0.68488376  1
  C  C136  1  0.71621167  0.71753217  0.73345667  1
  C  C137  1  0.70620700  0.69574851  0.81194666  1
  C  C138  1  0.71407415  0.82340223  0.70828460  1
  C  C139  1  0.73040371  0.84646348  0.63656132  1
  I  I140  1  0.25419192  -0.03629465  0.98845756  1
  I  I141  1  0.26060063  0.52055403  0.99310039  1
  I  I142  1  0.75186036  0.03759291  0.00405839  1
  I  I143  1  0.76081738  0.46502356  0.01875746  1
  I  I144  1  0.05960938  0.25207946  0.00029015  1
  I  I145  1  0.96944811  0.75115856  0.99547456  1
  I  I146  1  0.47558561  0.24177996  0.00685781  1
  I  I147  1  0.52383559  0.73926399  0.00247395  1
  I  I148  1  0.94435742  0.99248101  0.82664128  1
  I  I149  1  0.97726209  0.98843110  0.16987040  1
  I  I150  1  0.00464285  0.51101567  0.82579145  1
  I  I151  1  0.04557064  0.56288674  0.16770542  1
  I  I152  1  0.48757650  0.02638942  0.81843512  1
  I  I153  1  0.53513434  0.97512122  0.16328315  1
  I  I154  1  0.50241013  0.49139945  0.84786939  1
  I  I155  1  0.48081896  0.49859353  0.19139778  1
  N  N156  1  0.27129856  0.30011002  0.86635881  1
  N  N157  1  0.29105954  0.29849754  0.14423803  1
  N  N158  1  0.30802014  0.73493768  0.86643264  1
  N  N159  1  0.29153715  0.69997245  0.14617756  1
  N  N160  1  0.69249805  0.22066348  0.13509335  1
  N  N161  1  0.71397828  0.18154231  0.84847166  1
  N  N162  1  0.78046475  0.69928757  0.13467570  1
  N  N163  1  0.81156302  0.71153902  0.84910583  1
  O  O164  1  0.26696643  0.29303273  0.53435518  1
  O  O165  1  0.29344325  0.73305543  0.53469731  1
  O  O166  1  0.70708536  0.23141966  0.46552067  1
  O  O167  1  0.76888347  0.70595302  0.46546105  1
