# generated using pymatgen
data_H19PbC13I4N3
_symmetry_space_group_name_H-M   'P 1'
_cell_length_a   12.44403279
_cell_length_b   12.55682188
_cell_length_c   16.81421349
_cell_angle_alpha   88.79473064
_cell_angle_beta   87.65526378
_cell_angle_gamma   90.19138298
_symmetry_Int_Tables_number   1
_chemical_formula_structural   H19PbC13I4N3
_chemical_formula_sum   'H76 Pb4 C52 I16 N12'
_cell_volume   2624.54327497
_cell_formula_units_Z   4
loop_
 _symmetry_equiv_pos_site_id
 _symmetry_equiv_pos_as_xyz
  1  'x, y, z'
loop_
 _atom_site_type_symbol
 _atom_site_label
 _atom_site_symmetry_multiplicity
 _atom_site_fract_x
 _atom_site_fract_y
 _atom_site_fract_z
 _atom_site_occupancy
  H  H0  1  0.31884981  0.21371358  0.84829025  1
  H  H1  1  0.21908349  0.28336967  0.89493636  1
  H  H2  1  0.33325780  0.34562063  0.86049039  1
  H  H3  1  0.19515920  0.39080321  0.77408968  1
  H  H4  1  0.15906702  0.25432010  0.76667263  1
  H  H5  1  0.38044555  0.34754444  0.71320980  1
  H  H6  1  0.33790068  0.21510694  0.70015291  1
  H  H7  1  0.21946273  0.49866139  0.62915537  1
  H  H8  1  0.16421741  0.47208607  0.47572988  1
  H  H9  1  0.18927448  0.09360707  0.48248806  1
  H  H10  1  0.16392870  0.99478862  0.36017696  1
  H  H11  1  0.15635865  0.08962622  0.22936709  1
  H  H12  1  0.17048751  0.38569553  0.20329396  1
  H  H13  1  0.12459754  0.26660021  0.16078935  1
  H  H14  1  0.31310938  0.20823250  0.14863908  1
  H  H15  1  0.35259290  0.32713325  0.18427400  1
  H  H16  1  0.28877190  0.32358081  0.09952687  1
  H  H17  1  0.21330993  0.38738763  0.34419218  1
  H  H18  1  0.28723646  0.18309426  0.56522988  1
  H  H19  1  0.19781393  0.69282347  0.85262842  1
  H  H20  1  0.29218228  0.76414132  0.89842075  1
  H  H21  1  0.32522932  0.64881735  0.85685458  1
  H  H22  1  0.39338527  0.79569180  0.77479356  1
  H  H23  1  0.25960552  0.84399320  0.76753646  1
  H  H24  1  0.33616982  0.62153256  0.71660572  1
  H  H25  1  0.20489714  0.67173691  0.70683943  1
  H  H26  1  0.49389298  0.78297734  0.62524623  1
  H  H27  1  0.46835634  0.83399672  0.46962661  1
  H  H28  1  0.08376959  0.80442519  0.48029110  1
  H  H29  1  0.98741994  0.82556063  0.35594103  1
  H  H30  1  0.08676441  0.83239426  0.22508638  1
  H  H31  1  0.38908468  0.82370107  0.20373813  1
  H  H32  1  0.27378460  0.87643115  0.15870615  1
  H  H33  1  0.20890559  0.69531678  0.14265604  1
  H  H34  1  0.32134644  0.64529837  0.18371395  1
  H  H35  1  0.33049529  0.71655101  0.09890534  1
  H  H36  1  0.38483884  0.78820764  0.34390943  1
  H  H37  1  0.17426103  0.71618515  0.57025956  1
  H  H38  1  0.78708357  0.16363461  0.15272710  1
  H  H39  1  0.70846658  0.25170329  0.10310746  1
  H  H40  1  0.65385650  0.14530746  0.15079150  1
  H  H41  1  0.61130126  0.29579405  0.22651125  1
  H  H42  1  0.74987119  0.33257731  0.22757297  1
  H  H43  1  0.65886127  0.11750927  0.29090532  1
  H  H44  1  0.79141195  0.16365424  0.30081380  1
  H  H45  1  0.50119917  0.27759472  0.37521185  1
  H  H46  1  0.52697192  0.33634586  0.52745120  1
  H  H47  1  0.91111589  0.32132810  0.51623721  1
  H  H48  1  0.01003332  0.34526755  0.63811239  1
  H  H49  1  0.91260810  0.34436122  0.77074844  1
  H  H50  1  0.61361141  0.33105825  0.79836481  1
  H  H51  1  0.73452512  0.36888817  0.84286781  1
  H  H52  1  0.78381940  0.17505103  0.84033261  1
  H  H53  1  0.65707597  0.14951409  0.81315865  1
  H  H54  1  0.67639754  0.20651825  0.89881781  1
  H  H55  1  0.61366580  0.28885503  0.65673063  1
  H  H56  1  0.82278469  0.22204671  0.43261808  1
  H  H57  1  0.81596572  0.79623137  0.14675770  1
  H  H58  1  0.74446567  0.70176706  0.10104496  1
  H  H59  1  0.85781303  0.66799953  0.14344921  1
  H  H60  1  0.70758524  0.60577788  0.22469350  1
  H  H61  1  0.65957867  0.73898831  0.23178795  1
  H  H62  1  0.88331474  0.66511314  0.28102147  1
  H  H63  1  0.82906819  0.79410354  0.29390913  1
  H  H64  1  0.72033129  0.50394029  0.37265320  1
  H  H65  1  0.66789136  0.52953062  0.52865013  1
  H  H66  1  0.68622002  0.90906440  0.52070815  1
  H  H67  1  0.66084761  0.00759275  0.64508682  1
  H  H68  1  0.66094925  0.91158244  0.77625757  1
  H  H69  1  0.68871297  0.61577690  0.79957414  1
  H  H70  1  0.63317955  0.72984426  0.84569469  1
  H  H71  1  0.81727889  0.80517274  0.84568286  1
  H  H72  1  0.86729370  0.68973035  0.81080423  1
  H  H73  1  0.79943941  0.68969809  0.89784582  1
  H  H74  1  0.71894978  0.61572324  0.65630101  1
  H  H75  1  0.78273323  0.82226514  0.43088184  1
  Pb  Pb76  1  0.98644835  0.99676241  0.98955125  1
  Pb  Pb77  1  0.99440571  0.50093534  0.99529881  1
  Pb  Pb78  1  0.47843558  0.01222450  0.00183475  1
  Pb  Pb79  1  0.49330085  0.50718121  0.01823621  1
  C  C80  1  0.22702398  0.30946561  0.77099737  1
  C  C81  1  0.30962341  0.29800643  0.70176122  1
  C  C82  1  0.26496854  0.32960099  0.62359641  1
  C  C83  1  0.22658563  0.42643883  0.59508983  1
  C  C84  1  0.19845030  0.41268012  0.51500633  1
  C  C85  1  0.21937233  0.30718296  0.49544498  1
  C  C86  1  0.20365487  0.24856028  0.42294957  1
  C  C87  1  0.19034440  0.13704353  0.42554530  1
  C  C88  1  0.17478322  0.08062030  0.35656922  1
  C  C89  1  0.17075104  0.13370606  0.28322533  1
  C  C90  1  0.18438568  0.24451402  0.27911480  1
  C  C91  1  0.18497561  0.29992591  0.19917676  1
  C  C92  1  0.20102679  0.30128111  0.34822371  1
  C  C93  1  0.30863822  0.77193494  0.77238222  1
  C  C94  1  0.29033423  0.69491631  0.70501187  1
  C  C95  1  0.32233214  0.73962747  0.62480337  1
  C  C96  1  0.42065102  0.77623242  0.59291661  1
  C  C97  1  0.40732428  0.80180340  0.51148042  1
  C  C98  1  0.30048389  0.78098034  0.49453856  1
  C  C99  1  0.24219850  0.79300761  0.42182866  1
  C  C100  1  0.12914350  0.80224902  0.42343158  1
  C  C101  1  0.07423186  0.81456204  0.35325452  1
  C  C102  1  0.12990981  0.81842956  0.27959953  1
  C  C103  1  0.24229663  0.80899798  0.27681974  1
  C  C104  1  0.30250517  0.81223995  0.19777216  1
  C  C105  1  0.29746089  0.79625650  0.34697030  1
  C  C106  1  0.69365803  0.26498403  0.22833447  1
  C  C107  1  0.70712303  0.18977018  0.29985457  1
  C  C108  1  0.67383655  0.23782241  0.37735168  1
  C  C109  1  0.57487710  0.27339757  0.40759762  1
  C  C110  1  0.58820021  0.30269491  0.48762810  1
  C  C111  1  0.69546444  0.28532866  0.50535291  1
  C  C112  1  0.75450271  0.30172277  0.57706002  1
  C  C113  1  0.86700242  0.31721870  0.57368199  1
  C  C114  1  0.92337108  0.33162942  0.64257378  1
  C  C115  1  0.86889803  0.33157254  0.71674669  1
  C  C116  1  0.75706269  0.31674789  0.72144401  1
  C  C117  1  0.69951034  0.31312981  0.80156873  1
  C  C118  1  0.70056329  0.30193877  0.65235378  1
  C  C119  1  0.73198970  0.68964497  0.22703354  1
  C  C120  1  0.80807047  0.70879408  0.29429109  1
  C  C121  1  0.76259264  0.67502497  0.37434153  1
  C  C122  1  0.72702851  0.57701645  0.40553067  1
  C  C123  1  0.70062440  0.59019620  0.48755064  1
  C  C124  1  0.71988750  0.69622995  0.50563884  1
  C  C125  1  0.70583072  0.75474399  0.57892893  1
  C  C126  1  0.69074470  0.86606934  0.57754243  1
  C  C127  1  0.67521746  0.92202993  0.64770307  1
  C  C128  1  0.67480364  0.86841550  0.72112739  1
  C  C129  1  0.69117099  0.75797479  0.72390549  1
  C  C130  1  0.69637137  0.70244623  0.80350662  1
  C  C131  1  0.70611232  0.70169584  0.65360723  1
  I  I132  1  0.23069944  0.04908679  0.03865755  1
  I  I133  1  0.24303827  0.49298464  0.01922899  1
  I  I134  1  0.73151370  0.97026689  0.96069244  1
  I  I135  1  0.74306699  0.53201213  0.98992989  1
  I  I136  1  0.00232895  0.25962874  0.94980823  1
  I  I137  1  0.04504952  0.75503743  0.02893210  1
  I  I138  1  0.52896702  0.26227273  0.00394318  1
  I  I139  1  0.47789133  0.75924721  0.99732159  1
  I  I140  1  0.99963114  0.97499202  0.80582747  1
  I  I141  1  0.89714665  0.99194293  0.18126946  1
  I  I142  1  0.03288526  0.57053216  0.80654482  1
  I  I143  1  0.94995446  0.48140353  0.18212612  1
  I  I144  1  0.45514100  0.06219087  0.81068885  1
  I  I145  1  0.49187351  0.03657289  0.18958785  1
  I  I146  1  0.46558685  0.50513375  0.82754105  1
  I  I147  1  0.46681572  0.49953897  0.21171397  1
  N  N148  1  0.27753427  0.28609939  0.84919593  1
  N  N149  1  0.29229800  0.28729623  0.15550114  1
  N  N150  1  0.25879806  0.25859234  0.56280232  1
  N  N151  1  0.27805820  0.71711600  0.85042772  1
  N  N152  1  0.28844856  0.71034256  0.15384299  1
  N  N153  1  0.25061934  0.74434657  0.56492314  1
  N  N154  1  0.71391620  0.20413982  0.15338724  1
  N  N155  1  0.70634379  0.20393484  0.84024532  1
  N  N156  1  0.74548586  0.24697204  0.43689740  1
  N  N157  1  0.79031821  0.71692838  0.14934378  1
  N  N158  1  0.80178172  0.72453586  0.84114481  1
  N  N159  1  0.75622787  0.74600616  0.43543856  1
