# generated using pymatgen
data_H22PbC24(I2N)2
_symmetry_space_group_name_H-M   'P 1'
_cell_length_a   12.55315092
_cell_length_b   12.44662667
_cell_length_c   21.65318062
_cell_angle_alpha   88.40149363
_cell_angle_beta   88.96590824
_cell_angle_gamma   89.41156857
_symmetry_Int_Tables_number   1
_chemical_formula_structural   H22PbC24(I2N)2
_chemical_formula_sum   'H88 Pb4 C96 I16 N8'
_cell_volume   3381.15901806
_cell_formula_units_Z   4
loop_
 _symmetry_equiv_pos_site_id
 _symmetry_equiv_pos_as_xyz
  1  'x, y, z'
loop_
 _atom_site_type_symbol
 _atom_site_label
 _atom_site_symmetry_multiplicity
 _atom_site_fract_x
 _atom_site_fract_y
 _atom_site_fract_z
 _atom_site_occupancy
  H  H0  1  0.32512544  0.22349203  0.86439519  1
  H  H1  1  0.31398245  0.35878321  0.86636834  1
  H  H2  1  0.25098405  0.28219331  0.92006664  1
  H  H3  1  0.11640848  0.34112716  0.85662943  1
  H  H4  1  0.14039768  0.20296354  0.84368485  1
  H  H5  1  0.17985821  0.48296379  0.77918630  1
  H  H6  1  0.20738288  0.52719379  0.66815796  1
  H  H7  1  0.23450915  0.46525737  0.56002346  1
  H  H8  1  0.25714777  0.40073583  0.45343949  1
  H  H9  1  0.27677782  0.95409932  0.43272803  1
  H  H10  1  0.29932341  0.98462233  0.31968324  1
  H  H11  1  0.31238681  0.10237831  0.23146411  1
  H  H12  1  0.35697402  0.21451369  0.14403930  1
  H  H13  1  0.36111770  0.35714925  0.14897748  1
  H  H14  1  0.16712891  0.22570767  0.13331666  1
  H  H15  1  0.16155166  0.35699501  0.14680765  1
  H  H16  1  0.22098148  0.31167206  0.08314863  1
  H  H17  1  0.29347034  0.44630552  0.24741113  1
  H  H18  1  0.27122808  0.42567107  0.35936394  1
  H  H19  1  0.25286079  0.02092288  0.53395426  1
  H  H20  1  0.23001625  0.08335227  0.63925049  1
  H  H21  1  0.20319760  0.14418041  0.74471285  1
  H  H22  1  0.22609977  0.67854898  0.86523619  1
  H  H23  1  0.35805709  0.68866078  0.86966640  1
  H  H24  1  0.27864063  0.75101873  0.92036739  1
  H  H25  1  0.34095135  0.88630499  0.85474818  1
  H  H26  1  0.20366683  0.86722079  0.84092777  1
  H  H27  1  0.48186624  0.81695948  0.77899813  1
  H  H28  1  0.52535472  0.79221409  0.66877839  1
  H  H29  1  0.46378658  0.76527860  0.56072882  1
  H  H30  1  0.39930169  0.73655290  0.45465040  1
  H  H31  1  0.95612975  0.72480779  0.43327458  1
  H  H32  1  0.98513489  0.69527801  0.32150052  1
  H  H33  1  0.09988499  0.68195868  0.23380059  1
  H  H34  1  0.20745729  0.64032382  0.14648014  1
  H  H35  1  0.34883181  0.63117808  0.15095121  1
  H  H36  1  0.22122602  0.83225958  0.13510645  1
  H  H37  1  0.35234080  0.83136436  0.14671652  1
  H  H38  1  0.30191077  0.77764733  0.08409381  1
  H  H39  1  0.44141803  0.69037109  0.24930524  1
  H  H40  1  0.42316602  0.71156022  0.36087412  1
  H  H41  1  0.02310691  0.75888661  0.53252875  1
  H  H42  1  0.08512829  0.78955693  0.63654646  1
  H  H43  1  0.14553813  0.81538520  0.74168396  1
  H  H44  1  0.78950525  0.15363675  0.14196301  1
  H  H45  1  0.65589322  0.15741278  0.14472937  1
  H  H46  1  0.71820489  0.21142798  0.08411815  1
  H  H47  1  0.66459640  0.35984167  0.13761852  1
  H  H48  1  0.80299471  0.34405112  0.15345371  1
  H  H49  1  0.52577506  0.30489533  0.21721402  1
  H  H50  1  0.48032288  0.28465115  0.32783633  1
  H  H51  1  0.53881435  0.26326113  0.43737518  1
  H  H52  1  0.60140307  0.24472423  0.54573426  1
  H  H53  1  0.04361085  0.23455910  0.56986619  1
  H  H54  1  0.01337230  0.20862267  0.68285077  1
  H  H55  1  0.89940073  0.18731484  0.76945619  1
  H  H56  1  0.79283003  0.12795561  0.85505348  1
  H  H57  1  0.65170256  0.11518264  0.84988313  1
  H  H58  1  0.77303859  0.31616298  0.86947169  1
  H  H59  1  0.64309977  0.31638080  0.85274857  1
  H  H60  1  0.68257080  0.25390250  0.91721566  1
  H  H61  1  0.55844669  0.18626544  0.75204721  1
  H  H62  1  0.57685183  0.21944191  0.64041042  1
  H  H63  1  0.97869641  0.25911913  0.46904026  1
  H  H64  1  0.91891739  0.27963183  0.36337524  1
  H  H65  1  0.86103219  0.29882984  0.25668642  1
  H  H66  1  0.83740910  0.79367178  0.14191495  1
  H  H67  1  0.83498025  0.65804205  0.14222673  1
  H  H68  1  0.78361201  0.72771959  0.08369490  1
  H  H69  1  0.63505034  0.66973963  0.13954132  1
  H  H70  1  0.64932116  0.80891400  0.15505469  1
  H  H71  1  0.68712967  0.52717960  0.21897849  1
  H  H72  1  0.70436101  0.47987620  0.32928044  1
  H  H73  1  0.73073046  0.53641718  0.43788521  1
  H  H74  1  0.75977900  0.59772982  0.54535296  1
  H  H75  1  0.77427741  0.04321767  0.56700955  1
  H  H76  1  0.80320882  0.01262211  0.67924199  1
  H  H77  1  0.82318683  0.89782627  0.76607388  1
  H  H78  1  0.87467868  0.79002775  0.85203980  1
  H  H79  1  0.88833371  0.64759611  0.84721519  1
  H  H80  1  0.69224278  0.77052634  0.87828551  1
  H  H81  1  0.68751593  0.64268030  0.85730879  1
  H  H82  1  0.75546267  0.67579567  0.91933318  1
  H  H83  1  0.81278713  0.55362379  0.75240938  1
  H  H84  1  0.78590714  0.57223459  0.64095877  1
  H  H85  1  0.74167127  0.97931361  0.46845273  1
  H  H86  1  0.71061160  0.92116100  0.36450368  1
  H  H87  1  0.68933543  0.86480945  0.25822126  1
  Pb  Pb88  1  0.99195251  -0.00754289  0.99542951  1
  Pb  Pb89  1  0.98330173  0.48265952  0.00195171  1
  Pb  Pb90  1  0.48490826  0.01034376  0.00086360  1
  Pb  Pb91  1  0.49379885  0.50598582  0.98556616  1
  C  C92  1  0.17309167  0.28396512  0.83623713  1
  C  C93  1  0.19269246  0.30959721  0.76899585  1
  C  C94  1  0.19351191  0.41891009  0.74645229  1
  C  C95  1  0.20802680  0.44353616  0.68473204  1
  C  C96  1  0.22251362  0.36050749  0.64085241  1
  C  C97  1  0.23490907  0.38185747  0.57726305  1
  C  C98  1  0.24642183  0.29821789  0.53494432  1
  C  C99  1  0.25690948  0.31720035  0.47017838  1
  C  C100  1  0.26615604  0.23382256  0.42876144  1
  C  C101  1  0.26550610  0.12385464  0.45318720  1
  C  C102  1  0.27711677  0.03527376  0.41241651  1
  C  C103  1  0.28902418  0.05194060  0.35053144  1
  C  C104  1  0.28826462  0.15904571  0.32382182  1
  C  C105  1  0.30023241  0.17326841  0.25946766  1
  C  C106  1  0.30084130  0.27477211  0.23132766  1
  C  C107  1  0.31552717  0.28515157  0.16260649  1
  C  C108  1  0.29002749  0.36569434  0.26846777  1
  C  C109  1  0.27796403  0.35341723  0.33217190  1
  C  C110  1  0.27659661  0.25071237  0.36171386  1
  C  C111  1  0.25458192  0.10397944  0.51630800  1
  C  C112  1  0.24532447  0.18787973  0.55844683  1
  C  C113  1  0.23300404  0.16670324  0.62216494  1
  C  C114  1  0.22186195  0.24982142  0.66371082  1
  C  C115  1  0.20640293  0.22786569  0.72818795  1
  C  C116  1  0.28361485  0.83205883  0.83445434  1
  C  C117  1  0.30952524  0.81393800  0.76766157  1
  C  C118  1  0.41803669  0.80841943  0.74598387  1
  C  C119  1  0.44228720  0.79530032  0.68455989  1
  C  C120  1  0.35998874  0.78578631  0.64013596  1
  C  C121  1  0.38104281  0.76995455  0.57718487  1
  C  C122  1  0.29807095  0.75873212  0.53475974  1
  C  C123  1  0.31655446  0.74048289  0.47091046  1
  C  C124  1  0.23367394  0.72850448  0.42971382  1
  C  C125  1  0.12475420  0.73466465  0.45349164  1
  C  C126  1  0.03638644  0.72132373  0.41326144  1
  C  C127  1  0.05219288  0.70526714  0.35211939  1
  C  C128  1  0.15806799  0.70234002  0.32571760  1
  C  C129  1  0.17081625  0.69078877  0.26164783  1
  C  C130  1  0.27075115  0.68894569  0.23332912  1
  C  C131  1  0.27846860  0.67847549  0.16466810  1
  C  C132  1  0.36186030  0.69545029  0.27033803  1
  C  C133  1  0.35095195  0.70678169  0.33385046  1
  C  C134  1  0.24965279  0.71222864  0.36332015  1
  C  C135  1  0.10541398  0.75369953  0.51551579  1
  C  C136  1  0.18874501  0.76601602  0.55736580  1
  C  C137  1  0.16778431  0.78381432  0.62016457  1
  C  C138  1  0.25021422  0.79269695  0.66201820  1
  C  C139  1  0.22852030  0.80757171  0.72609052  1
  C  C140  1  0.72378195  0.30941236  0.16196937  1
  C  C141  1  0.69762690  0.29877030  0.22970448  1
  C  C142  1  0.58891576  0.29556740  0.25085483  1
  C  C143  1  0.56349420  0.28503672  0.31257534  1
  C  C144  1  0.64463540  0.27647110  0.35794078  1
  C  C145  1  0.62194595  0.26633511  0.42148706  1
  C  C146  1  0.70392656  0.26005092  0.46516894  1
  C  C147  1  0.68431599  0.24892177  0.52986182  1
  C  C148  1  0.76655129  0.24138005  0.57221333  1
  C  C149  1  0.87569627  0.24501530  0.54871282  1
  C  C150  1  0.96347947  0.23332674  0.58986566  1
  C  C151  1  0.94700772  0.21921914  0.65150563  1
  C  C152  1  0.84107399  0.21557512  0.67738184  1
  C  C153  1  0.82839389  0.19708550  0.74135849  1
  C  C154  1  0.72825793  0.18707412  0.76879614  1
  C  C155  1  0.71986019  0.16603638  0.83725656  1
  C  C156  1  0.63771734  0.19611204  0.73125845  1
  C  C157  1  0.64876796  0.21489131  0.66792062  1
  C  C158  1  0.74995259  0.22557377  0.63904688  1
  C  C159  1  0.89614142  0.25695447  0.48585209  1
  C  C160  1  0.81358681  0.26464238  0.44285731  1
  C  C161  1  0.83600077  0.27550103  0.37934871  1
  C  C162  1  0.75472289  0.28098329  0.33647391  1
  C  C163  1  0.77786457  0.29266388  0.27197167  1
  C  C164  1  0.68358043  0.72837199  0.16324167  1
  C  C165  1  0.69089917  0.70055129  0.23104019  1
  C  C166  1  0.69410145  0.59052337  0.25236094  1
  C  C167  1  0.70297977  0.56393940  0.31400076  1
  C  C168  1  0.71128988  0.64473754  0.35922551  1
  C  C169  1  0.72607150  0.62060922  0.42225160  1
  C  C170  1  0.73731455  0.70238756  0.46546931  1
  C  C171  1  0.75561892  0.68165125  0.52944949  1
  C  C172  1  0.76844921  0.76394678  0.57105385  1
  C  C173  1  0.76361581  0.87422754  0.54726490  1
  C  C174  1  0.77751425  0.96238828  0.58739136  1
  C  C175  1  0.79322888  0.94572820  0.64860098  1
  C  C176  1  0.79676039  0.83884605  0.67503895  1
  C  C177  1  0.81196035  0.82610231  0.73900679  1
  C  C178  1  0.81653153  0.72517763  0.76764817  1
  C  C179  1  0.83727281  0.71698921  0.83566758  1
  C  C180  1  0.80677460  0.63381042  0.73096352  1
  C  C181  1  0.79202543  0.64493216  0.66759746  1
  C  C182  1  0.78576486  0.74702266  0.63758847  1
  C  C183  1  0.74508902  0.89579181  0.48524269  1
  C  C184  1  0.73133242  0.81331960  0.44313239  1
  C  C185  1  0.71445567  0.83715856  0.38033981  1
  C  C186  1  0.70555256  0.75604815  0.33776860  1
  C  C187  1  0.69429766  0.78052405  0.27344951  1
  I  I188  1  0.23836567  0.92832633  0.99836615  1
  I  I189  1  0.24380986  0.50923450  0.98323823  1
  I  I190  1  0.73523968  0.97956102  0.98621263  1
  I  I191  1  0.74170274  0.53046456  0.01793318  1
  I  I192  1  0.08057211  0.22940118  0.99928745  1
  I  I193  1  0.99024468  0.73047776  0.98358265  1
  I  I194  1  0.54721710  0.25655078  0.01073544  1
  I  I195  1  0.50777592  0.75750343  0.97578397  1
  I  I196  1  0.00682610  0.00148002  0.84925008  1
  I  I197  1  0.95359233  0.98777950  0.14881920  1
  I  I198  1  0.92381107  0.43471641  0.86160883  1
  I  I199  1  0.99930328  0.49042392  0.15407494  1
  I  I200  1  0.44264171  0.07228277  0.85822293  1
  I  I201  1  0.49179873  0.99476036  0.15264077  1
  I  I202  1  0.51131858  0.50445330  0.83416149  1
  I  I203  1  0.49720952  0.50669739  0.13012832  1
  N  N204  1  0.27279664  0.28808055  0.87369383  1
  N  N205  1  0.21065543  0.29542042  0.13007173  1
  N  N206  1  0.28665582  0.73040670  0.87430222  1
  N  N207  1  0.28927711  0.78577663  0.13123979  1
  N  N208  1  0.72306991  0.20106331  0.13163988  1
  N  N209  1  0.70374960  0.26913188  0.87121953  1
  N  N210  1  0.79198145  0.72736806  0.13115279  1
  N  N211  1  0.73681239  0.70095424  0.87453023  1
