# generated using pymatgen
data_H22PbC24(I2N)2
_symmetry_space_group_name_H-M   'P 1'
_cell_length_a   12.18279452
_cell_length_b   12.28560188
_cell_length_c   21.58267057
_cell_angle_alpha   91.98273291
_cell_angle_beta   90.86434942
_cell_angle_gamma   90.37797586
_symmetry_Int_Tables_number   1
_chemical_formula_structural   H22PbC24(I2N)2
_chemical_formula_sum   'H88 Pb4 C96 I16 N8'
_cell_volume   3227.95898912
_cell_formula_units_Z   4
loop_
 _symmetry_equiv_pos_site_id
 _symmetry_equiv_pos_as_xyz
  1  'x, y, z'
loop_
 _atom_site_type_symbol
 _atom_site_label
 _atom_site_symmetry_multiplicity
 _atom_site_fract_x
 _atom_site_fract_y
 _atom_site_fract_z
 _atom_site_occupancy
  H  H0  1  0.33505913  0.17780826  0.85920885  1
  H  H1  1  0.33595895  0.31491751  0.85265613  1
  H  H2  1  0.28039544  0.25687416  0.91457108  1
  H  H3  1  0.13837863  0.31861709  0.84544080  1
  H  H4  1  0.13302296  0.17584028  0.85812180  1
  H  H5  1  0.18513424  0.04123044  0.77474208  1
  H  H6  1  0.20752356  0.00164349  0.66295336  1
  H  H7  1  0.23351801  0.06725158  0.55769282  1
  H  H8  1  0.23615828  0.51909320  0.53660111  1
  H  H9  1  0.26546275  0.48876566  0.42615887  1
  H  H10  1  0.29156904  0.46634766  0.33986373  1
  H  H11  1  0.32151458  0.43361493  0.22950548  1
  H  H12  1  0.38379772  0.16773247  0.15552247  1
  H  H13  1  0.37249946  0.31071913  0.14451080  1
  H  H14  1  0.17511535  0.16574208  0.15319235  1
  H  H15  1  0.18488750  0.29149023  0.12444445  1
  H  H16  1  0.23996330  0.18552767  0.08677010  1
  H  H17  1  0.31670676  0.08684524  0.25316530  1
  H  H18  1  0.29087521  0.01385200  0.35684609  1
  H  H19  1  0.26048683  0.04185316  0.46764543  1
  H  H20  1  0.21036303  0.45154449  0.63870276  1
  H  H21  1  0.18813888  0.38634907  0.74478772  1
  H  H22  1  0.17539200  0.65726522  0.85626618  1
  H  H23  1  0.31235946  0.66105341  0.84912966  1
  H  H24  1  0.25465203  0.71428060  0.91281086  1
  H  H25  1  0.31373504  0.85882432  0.84790590  1
  H  H26  1  0.16968215  0.85814283  0.86166990  1
  H  H27  1  0.03643170  0.80578219  0.77762207  1
  H  H28  1  0.99795084  0.78515469  0.66533716  1
  H  H29  1  0.06520370  0.76263258  0.55908770  1
  H  H30  1  0.52091980  0.76331016  0.53506159  1
  H  H31  1  0.49143146  0.73259520  0.42407976  1
  H  H32  1  0.46973690  0.70971002  0.33756286  1
  H  H33  1  0.43861592  0.68216191  0.22645969  1
  H  H34  1  0.17144060  0.62132965  0.15040769  1
  H  H35  1  0.31686815  0.62817824  0.14109588  1
  H  H36  1  0.17139437  0.82193445  0.15270367  1
  H  H37  1  0.30546997  0.82423822  0.13646199  1
  H  H38  1  0.21260088  0.76612835  0.08596915  1
  H  H39  1  0.08864336  0.68208138  0.25188209  1
  H  H40  1  0.01336246  0.70748451  0.35691080  1
  H  H41  1  0.04027911  0.73768603  0.46837166  1
  H  H42  1  0.45178124  0.78954818  0.63813479  1
  H  H43  1  0.38453339  0.81151467  0.74529191  1
  H  H44  1  0.83981809  0.17210844  0.14086947  1
  H  H45  1  0.70229537  0.17078240  0.14418550  1
  H  H46  1  0.76396671  0.22677917  0.08443079  1
  H  H47  1  0.69177748  0.36496286  0.15556604  1
  H  H48  1  0.83567157  0.37429823  0.14422328  1
  H  H49  1  0.96892668  0.31998710  0.22555302  1
  H  H50  1  0.00643894  0.29384012  0.33692284  1
  H  H51  1  0.93775428  0.26581022  0.44145836  1
  H  H52  1  0.48220662  0.26096843  0.46501579  1
  H  H53  1  0.51109254  0.23175597  0.57483873  1
  H  H54  1  0.53312317  0.20955490  0.66155799  1
  H  H55  1  0.56501914  0.18856581  0.77212705  1
  H  H56  1  0.83436949  0.13710634  0.84599648  1
  H  H57  1  0.68955338  0.13640103  0.85558965  1
  H  H58  1  0.82676543  0.33892515  0.85327553  1
  H  H59  1  0.69389428  0.33082651  0.87121276  1
  H  H60  1  0.78964248  0.27670199  0.91688085  1
  H  H61  1  0.91500259  0.19213379  0.74589319  1
  H  H62  1  0.98898497  0.21207833  0.64148725  1
  H  H63  1  0.96237393  0.23827310  0.53102452  1
  H  H64  1  0.55172692  0.28988751  0.36288328  1
  H  H65  1  0.62012433  0.31647430  0.25666077  1
  H  H66  1  0.82290945  0.83513184  0.14175167  1
  H  H67  1  0.82636420  0.69800422  0.14045945  1
  H  H68  1  0.76369443  0.76607630  0.08315651  1
  H  H69  1  0.63151524  0.68507794  0.15328049  1
  H  H70  1  0.61817604  0.82740389  0.14271475  1
  H  H71  1  0.68174026  0.96276876  0.22480585  1
  H  H72  1  0.70867302  0.00217542  0.33711743  1
  H  H73  1  0.73418785  0.93560362  0.44249843  1
  H  H74  1  0.73815491  0.48399500  0.46243479  1
  H  H75  1  0.76623409  0.51378276  0.57352328  1
  H  H76  1  0.78932180  0.53653032  0.66084055  1
  H  H77  1  0.81028928  0.56922933  0.77241778  1
  H  H78  1  0.85856431  0.83842205  0.84975952  1
  H  H79  1  0.86289298  0.69471659  0.85785721  1
  H  H80  1  0.65345769  0.82096030  0.85173704  1
  H  H81  1  0.67102295  0.69006748  0.87217588  1
  H  H82  1  0.72108149  0.79268479  0.91665392  1
  H  H83  1  0.80037551  0.91586503  0.74954202  1
  H  H84  1  0.78196997  0.98859671  0.64509336  1
  H  H85  1  0.75983151  0.96100280  0.53331072  1
  H  H86  1  0.71053504  0.55162302  0.36015881  1
  H  H87  1  0.68491610  0.61755318  0.25384767  1
  Pb  Pb88  1  0.99468641  0.00678038  0.00781303  1
  Pb  Pb89  1  0.99284307  0.51808828  0.99801649  1
  Pb  Pb90  1  0.48861526  -0.00575909  0.99760740  1
  Pb  Pb91  1  0.48559565  0.48537190  0.99548978  1
  C  C92  1  0.17871553  0.24040867  0.83552995  1
  C  C93  1  0.18831527  0.21745490  0.76706629  1
  C  C94  1  0.19307604  0.10791980  0.74305014  1
  C  C95  1  0.20506677  0.08577231  0.68064989  1
  C  C96  1  0.21426477  0.17163731  0.63822617  1
  C  C97  1  0.22918170  0.15203481  0.57419768  1
  C  C98  1  0.23889494  0.23692117  0.53289454  1
  C  C99  1  0.23161053  0.34746086  0.55771021  1
  C  C100  1  0.24154565  0.43627319  0.51706394  1
  C  C101  1  0.25795531  0.41869179  0.45527113  1
  C  C102  1  0.26599022  0.31076908  0.42827606  1
  C  C103  1  0.28433219  0.29458131  0.36256838  1
  C  C104  1  0.29528091  0.38249599  0.32212804  1
  C  C105  1  0.31137301  0.36465936  0.25947403  1
  C  C106  1  0.31780993  0.25764811  0.23369780  1
  C  C107  1  0.33381161  0.24006195  0.16534509  1
  C  C108  1  0.30935047  0.16999210  0.27227216  1
  C  C109  1  0.29251341  0.18605764  0.33670035  1
  C  C110  1  0.28369791  0.09644270  0.37664752  1
  C  C111  1  0.26640090  0.11275543  0.43890192  1
  C  C112  1  0.25661023  0.21957830  0.46652708  1
  C  C113  1  0.21574489  0.36742486  0.62099145  1
  C  C114  1  0.20765610  0.28235262  0.66232477  1
  C  C115  1  0.19393755  0.30228023  0.72702631  1
  C  C116  1  0.23615048  0.81558218  0.83725288  1
  C  C117  1  0.21402790  0.80618599  0.76866531  1
  C  C118  1  0.10394156  0.79962095  0.74522424  1
  C  C119  1  0.08247230  0.78863260  0.68263804  1
  C  C120  1  0.16960071  0.78177632  0.63943535  1
  C  C121  1  0.15047646  0.76774976  0.57514570  1
  C  C122  1  0.23651284  0.75923493  0.53300954  1
  C  C123  1  0.34766488  0.76739133  0.55730079  1
  C  C124  1  0.43764764  0.75755484  0.51586480  1
  C  C125  1  0.42047941  0.74040261  0.45383897  1
  C  C126  1  0.31193487  0.73208462  0.42735854  1
  C  C127  1  0.29631650  0.71441015  0.36126981  1
  C  C128  1  0.38555808  0.70505215  0.32010370  1
  C  C129  1  0.36860798  0.69002991  0.25710780  1
  C  C130  1  0.26124948  0.68249706  0.23161125  1
  C  C131  1  0.24604487  0.66828764  0.16263841  1
  C  C132  1  0.17217108  0.68976926  0.27081067  1
  C  C133  1  0.18730285  0.70602050  0.33569390  1
  C  C134  1  0.09642374  0.71448281  0.37642678  1
  C  C135  1  0.11216065  0.73157532  0.43906919  1
  C  C136  1  0.21956819  0.74130236  0.46635823  1
  C  C137  1  0.36714437  0.78330156  0.62087630  1
  C  C138  1  0.28090824  0.78969186  0.66298594  1
  C  C139  1  0.30006244  0.80298165  0.72796739  1
  C  C140  1  0.77095149  0.32650561  0.16567843  1
  C  C141  1  0.79126450  0.31602967  0.23389577  1
  C  C142  1  0.90117568  0.31110154  0.25751496  1
  C  C143  1  0.92198227  0.29736168  0.31946917  1
  C  C144  1  0.83414983  0.28701868  0.36190674  1
  C  C145  1  0.85262723  0.26994828  0.42540542  1
  C  C146  1  0.76638402  0.25858295  0.46694829  1
  C  C147  1  0.65540674  0.26613566  0.44282569  1
  C  C148  1  0.56539754  0.25543306  0.48390353  1
  C  C149  1  0.58230199  0.23910623  0.54543570  1
  C  C150  1  0.69067071  0.23208124  0.57188825  1
  C  C151  1  0.70630176  0.21724527  0.63767758  1
  C  C152  1  0.61744400  0.20813157  0.67887444  1
  C  C153  1  0.63486659  0.19690954  0.74161006  1
  C  C154  1  0.74239203  0.19296976  0.76698566  1
  C  C155  1  0.75830682  0.18068805  0.83547279  1
  C  C156  1  0.83116065  0.19858230  0.72760039  1
  C  C157  1  0.81541666  0.21138478  0.66301541  1
  C  C158  1  0.90604771  0.21822271  0.62229524  1
  C  C159  1  0.89034766  0.23274972  0.56007198  1
  C  C160  1  0.78302833  0.24098075  0.53304174  1
  C  C161  1  0.63632966  0.28418739  0.37996935  1
  C  C162  1  0.72295480  0.29420627  0.33842815  1
  C  C163  1  0.70452573  0.30956918  0.27399388  1
  C  C164  1  0.66953257  0.76505480  0.16371561  1
  C  C165  1  0.68430628  0.78671845  0.23219959  1
  C  C166  1  0.69064842  0.89615696  0.25659545  1
  C  C167  1  0.70475459  0.91805418  0.31908996  1
  C  C168  1  0.71419290  0.83176624  0.36137585  1
  C  C169  1  0.73016656  0.85094568  0.42562113  1
  C  C170  1  0.74068786  0.76593239  0.46687031  1
  C  C171  1  0.73332683  0.65554420  0.44165285  1
  C  C172  1  0.74352337  0.56669334  0.48227808  1
  C  C173  1  0.75920974  0.58407083  0.54445678  1
  C  C174  1  0.76567532  0.69187919  0.57204059  1
  C  C175  1  0.77903292  0.70801536  0.63845931  1
  C  C176  1  0.78905859  0.62022791  0.67907322  1
  C  C177  1  0.80003275  0.63801597  0.74229785  1
  C  C178  1  0.80230342  0.74486294  0.76878687  1
  C  C179  1  0.81601525  0.76133642  0.83770525  1
  C  C180  1  0.79495824  0.83258012  0.73015954  1
  C  C181  1  0.78305267  0.81647455  0.66502505  1
  C  C182  1  0.77676418  0.90607955  0.62491118  1
  C  C183  1  0.76456194  0.88987746  0.56197636  1
  C  C184  1  0.75734249  0.78312823  0.53368443  1
  C  C185  1  0.71625283  0.63576868  0.37808844  1
  C  C186  1  0.70704388  0.72110622  0.33688536  1
  C  C187  1  0.69147233  0.70157625  0.27194459  1
  I  I188  1  0.24555545  0.07575658  0.98930537  1
  I  I189  1  0.23511744  0.42634649  0.01918033  1
  I  I190  1  0.74550564  0.93064993  0.00706405  1
  I  I191  1  0.73816544  0.54228449  0.96691026  1
  I  I192  1  0.93717705  0.25946273  0.00572437  1
  I  I193  1  0.08134595  0.76145442  0.99468183  1
  I  I194  1  0.57838090  0.23774183  0.00146463  1
  I  I195  1  0.44449711  0.73780911  0.99202893  1
  I  I196  1  0.99274350  0.00389394  0.86458296  1
  I  I197  1  0.00162746  0.01718320  0.16307333  1
  I  I198  1  0.01826774  0.50783659  0.84914813  1
  I  I199  1  0.96008281  0.55686597  0.14610088  1
  I  I200  1  0.50494450  0.98507484  0.84828578  1
  I  I201  1  0.45103928  0.96812185  0.14528994  1
  I  I202  1  0.45332415  0.47933345  0.84006012  1
  I  I203  1  0.51559741  0.49495520  0.13971287  1
  N  N204  1  0.29001390  0.24778831  0.86704096  1
  N  N205  1  0.22619262  0.21978852  0.13115796  1
  N  N206  1  0.24539298  0.70507266  0.86503776  1
  N  N207  1  0.23364784  0.77676325  0.13284584  1
  N  N208  1  0.76904131  0.21648625  0.13206166  1
  N  N209  1  0.76693922  0.28888553  0.87080169  1
  N  N210  1  0.77734726  0.76577139  0.13066939  1
  N  N211  1  0.70787201  0.76578791  0.87073082  1
