# generated using pymatgen
data_H22PbC24(I2N)2
_symmetry_space_group_name_H-M   'P 1'
_cell_length_a   12.43994484
_cell_length_b   12.34894834
_cell_length_c   21.69136785
_cell_angle_alpha   89.73544122
_cell_angle_beta   88.01574151
_cell_angle_gamma   89.45674471
_symmetry_Int_Tables_number   1
_chemical_formula_structural   H22PbC24(I2N)2
_chemical_formula_sum   'H88 Pb4 C96 I16 N8'
_cell_volume   3330.05460817
_cell_formula_units_Z   4
loop_
 _symmetry_equiv_pos_site_id
 _symmetry_equiv_pos_as_xyz
  1  'x, y, z'
loop_
 _atom_site_type_symbol
 _atom_site_label
 _atom_site_symmetry_multiplicity
 _atom_site_fract_x
 _atom_site_fract_y
 _atom_site_fract_z
 _atom_site_occupancy
  H  H0  1  0.31219096  0.26340782  0.87402734  1
  H  H1  1  0.29937562  0.39385347  0.85668260  1
  H  H2  1  0.22892976  0.33926270  0.91658143  1
  H  H3  1  0.09996851  0.35817163  0.84626932  1
  H  H4  1  0.13686003  0.21837228  0.84445022  1
  H  H5  1  0.19504294  0.48633930  0.76229801  1
  H  H6  1  0.22416005  0.50130847  0.64989624  1
  H  H7  1  0.24644876  0.41099578  0.54726281  1
  H  H8  1  0.23738641  0.95921409  0.55663589  1
  H  H9  1  0.26695226  0.95801230  0.44314465  1
  H  H10  1  0.28515784  0.04933813  0.34818046  1
  H  H11  1  0.29723061  0.13558982  0.24716835  1
  H  H12  1  0.34189933  0.22282670  0.14918281  1
  H  H13  1  0.33958589  0.36621014  0.14177053  1
  H  H14  1  0.19652111  0.29993793  0.08649653  1
  H  H15  1  0.14982847  0.22072307  0.14335260  1
  H  H16  1  0.13907919  0.35634278  0.14879508  1
  H  H17  1  0.29021768  0.48401044  0.23307490  1
  H  H18  1  0.27858726  0.49992423  0.34601960  1
  H  H19  1  0.26242870  0.41055860  0.44986849  1
  H  H20  1  0.21138392  0.05052849  0.65019163  1
  H  H21  1  0.18301400  0.13812338  0.75023485  1
  H  H22  1  0.24901871  0.67857038  0.87052730  1
  H  H23  1  0.38252130  0.68713113  0.85629140  1
  H  H24  1  0.32433689  0.75511711  0.91591664  1
  H  H25  1  0.35229348  0.89012798  0.84501834  1
  H  H26  1  0.21292760  0.85837298  0.84396042  1
  H  H27  1  0.48052385  0.80168826  0.75930845  1
  H  H28  1  0.49762351  0.77481352  0.64710646  1
  H  H29  1  0.40965923  0.75255508  0.54594596  1
  H  H30  1  0.96086796  0.76244122  0.56070064  1
  H  H31  1  0.96173628  0.73455152  0.44763765  1
  H  H32  1  0.05420740  0.71706578  0.35180144  1
  H  H33  1  0.14205029  0.70363445  0.25000536  1
  H  H34  1  0.23196347  0.65483835  0.15269196  1
  H  H35  1  0.37423392  0.65651743  0.14359809  1
  H  H36  1  0.30299822  0.80057186  0.08555527  1
  H  H37  1  0.22724136  0.84923151  0.14384106  1
  H  H38  1  0.36189601  0.85785673  0.14484840  1
  H  H39  1  0.48800520  0.70683962  0.23229624  1
  H  H40  1  0.50153029  0.72023556  0.34491522  1
  H  H41  1  0.41079089  0.73663662  0.44909248  1
  H  H42  1  0.04984973  0.78694167  0.65283979  1
  H  H43  1  0.13487345  0.81222148  0.75153702  1
  H  H44  1  0.76959649  0.13855205  0.15092810  1
  H  H45  1  0.63593268  0.15015084  0.14976579  1
  H  H46  1  0.71355905  0.19318171  0.09001453  1
  H  H47  1  0.65395448  0.34992540  0.14672734  1
  H  H48  1  0.79491662  0.33184264  0.15442839  1
  H  H49  1  0.52420450  0.29240921  0.23862171  1
  H  H50  1  0.50470207  0.27805419  0.35158725  1
  H  H51  1  0.59119236  0.26161997  0.45446383  1
  H  H52  1  0.04091942  0.26645426  0.44179015  1
  H  H53  1  0.03713679  0.23815923  0.55507437  1
  H  H54  1  0.94343739  0.21307787  0.64947708  1
  H  H55  1  0.85310510  0.18760234  0.75013357  1
  H  H56  1  0.76321282  0.13467969  0.84522991  1
  H  H57  1  0.62107526  0.13129194  0.85256508  1
  H  H58  1  0.68341161  0.26587098  0.91528972  1
  H  H59  1  0.75625542  0.32728416  0.86081390  1
  H  H60  1  0.62265471  0.33266925  0.85776412  1
  H  H61  1  0.50663752  0.19345570  0.76546986  1
  H  H62  1  0.49553743  0.21909728  0.65283666  1
  H  H63  1  0.58862116  0.24449697  0.55037361  1
  H  H64  1  0.95217604  0.28484086  0.34826266  1
  H  H65  1  0.86963679  0.29821095  0.24938454  1
  H  H66  1  0.85166806  0.76477872  0.14975149  1
  H  H67  1  0.84736565  0.63001935  0.14740706  1
  H  H68  1  0.80133025  0.70636103  0.08897337  1
  H  H69  1  0.64852998  0.63921464  0.14839665  1
  H  H70  1  0.65769987  0.78235996  0.15561823  1
  H  H71  1  0.70271827  0.51678199  0.23773818  1
  H  H72  1  0.72051640  0.49973067  0.35000170  1
  H  H73  1  0.73916443  0.58790081  0.45252598  1
  H  H74  1  0.73551385  0.04055691  0.44602017  1
  H  H75  1  0.76338343  0.03745482  0.55847118  1
  H  H76  1  0.78683281  0.94400991  0.65152526  1
  H  H77  1  0.80920312  0.85378851  0.75113959  1
  H  H78  1  0.86293858  0.76166123  0.84479861  1
  H  H79  1  0.86448083  0.61853679  0.84998879  1
  H  H80  1  0.72733532  0.68597400  0.91488203  1
  H  H81  1  0.67169523  0.76460686  0.86129093  1
  H  H82  1  0.66358196  0.62872529  0.85664670  1
  H  H83  1  0.80634703  0.50511387  0.76148771  1
  H  H84  1  0.78262796  0.49303156  0.64932616  1
  H  H85  1  0.75795487  0.58592151  0.54841440  1
  H  H86  1  0.71599400  0.95049969  0.35156300  1
  H  H87  1  0.69933111  0.86497162  0.25125267  1
  Pb  Pb88  1  0.00904427  0.99922586  0.99130291  1
  Pb  Pb89  1  0.01440387  0.52330746  0.00584716  1
  Pb  Pb90  1  0.52654637  0.99025536  -0.00098446  1
  Pb  Pb91  1  0.50968022  0.48582460  0.99032812  1
  C  C92  1  0.16324736  0.30031417  0.83172286  1
  C  C93  1  0.18934082  0.30996288  0.76387859  1
  C  C94  1  0.20131089  0.41308488  0.73443340  1
  C  C95  1  0.21726968  0.42143511  0.67144246  1
  C  C96  1  0.22405807  0.32718106  0.63373188  1
  C  C97  1  0.24061607  0.33110148  0.56884096  1
  C  C98  1  0.24814898  0.23741455  0.53289888  1
  C  C99  1  0.23808836  0.13414652  0.56421811  1
  C  C100  1  0.24544737  0.03442178  0.53060861  1
  C  C101  1  0.26142986  0.03389577  0.46862258  1
  C  C102  1  0.26915429  0.13341072  0.43431239  1
  C  C103  1  0.28020213  0.12849491  0.37041256  1
  C  C104  1  0.28283348  0.22211402  0.33369121  1
  C  C105  1  0.29036736  0.21552780  0.26842262  1
  C  C106  1  0.29044324  0.30751600  0.23220434  1
  C  C107  1  0.29807216  0.29688347  0.16311891  1
  C  C108  1  0.28647102  0.41093253  0.26137560  1
  C  C109  1  0.28035142  0.41997857  0.32477381  1
  C  C110  1  0.27682015  0.32620233  0.36331181  1
  C  C111  1  0.26763531  0.33059632  0.42857559  1
  C  C112  1  0.26260121  0.23709028  0.46518140  1
  C  C113  1  0.22001841  0.12955581  0.62779079  1
  C  C114  1  0.21294088  0.22344944  0.66376280  1
  C  C115  1  0.19494667  0.21747976  0.72863149  1
  C  C116  1  0.29425963  0.82939366  0.83106105  1
  C  C117  1  0.30534549  0.80670944  0.76312932  1
  C  C118  1  0.40830677  0.79575981  0.73245384  1
  C  C119  1  0.41787084  0.78098844  0.66956536  1
  C  C120  1  0.32495282  0.77429385  0.63313958  1
  C  C121  1  0.32995973  0.75806370  0.56848169  1
  C  C122  1  0.23754552  0.75079138  0.53385877  1
  C  C123  1  0.13442054  0.76084092  0.56626794  1
  C  C124  1  0.03603986  0.75429008  0.53392109  1
  C  C125  1  0.03658602  0.73927622  0.47216746  1
  C  C126  1  0.13599775  0.73160398  0.43678501  1
  C  C127  1  0.13229599  0.72142408  0.37312676  1
  C  C128  1  0.22595823  0.71832669  0.33539773  1
  C  C129  1  0.22082763  0.71009920  0.27040662  1
  C  C130  1  0.31312556  0.70811519  0.23341434  1
  C  C131  1  0.30444313  0.69893343  0.16475576  1
  C  C132  1  0.41500868  0.71173648  0.26136401  1
  C  C133  1  0.42266946  0.71880415  0.32447100  1
  C  C134  1  0.32868440  0.72340516  0.36379546  1
  C  C135  1  0.33182133  0.73210258  0.42881542  1
  C  C136  1  0.23835382  0.73716400  0.46639287  1
  C  C137  1  0.12874155  0.77839759  0.62958187  1
  C  C138  1  0.22138082  0.78509949  0.66431031  1
  C  C139  1  0.21419672  0.80193875  0.72899879  1
  C  C140  1  0.71567396  0.29893085  0.16758765  1
  C  C141  1  0.69990821  0.29244326  0.23632186  1
  C  C142  1  0.59586789  0.28796974  0.26614938  1
  C  C143  1  0.58486351  0.28045675  0.32955128  1
  C  C144  1  0.67683281  0.27647885  0.36702644  1
  C  C145  1  0.67099833  0.26698714  0.43213132  1
  C  C146  1  0.76316314  0.26219208  0.46728053  1
  C  C147  1  0.86695420  0.26868851  0.43538916  1
  C  C148  1  0.96500188  0.26119311  0.46824404  1
  C  C149  1  0.96307841  0.24587945  0.53004314  1
  C  C150  1  0.86305078  0.23857824  0.56465794  1
  C  C151  1  0.86566913  0.22103403  0.62789769  1
  C  C152  1  0.77112768  0.21376194  0.66463074  1
  C  C153  1  0.77485908  0.19788543  0.72923622  1
  C  C154  1  0.68159587  0.19326238  0.76520970  1
  C  C155  1  0.68896269  0.17765586  0.83335272  1
  C  C156  1  0.58010216  0.20072493  0.73683983  1
  C  C157  1  0.57384563  0.21467295  0.67400600  1
  C  C158  1  0.66891213  0.22320583  0.63580167  1
  C  C159  1  0.66711136  0.23958352  0.57125815  1
  C  C160  1  0.76128583  0.24793488  0.53464950  1
  C  C161  1  0.87327411  0.27979276  0.37169345  1
  C  C162  1  0.78110770  0.28280774  0.33651129  1
  C  C163  1  0.78978546  0.29123912  0.27150273  1
  C  C164  1  0.69496985  0.70481287  0.16833936  1
  C  C165  1  0.70295133  0.69319376  0.23692711  1
  C  C166  1  0.70804207  0.58940801  0.26580257  1
  C  C167  1  0.71758341  0.57985865  0.32872260  1
  C  C168  1  0.72311753  0.67337880  0.36673131  1
  C  C169  1  0.73393273  0.66819190  0.43146446  1
  C  C170  1  0.73954981  0.76117934  0.46772473  1
  C  C171  1  0.73299106  0.86532803  0.43713061  1
  C  C172  1  0.74075498  0.96421410  0.47124504  1
  C  C173  1  0.75580408  0.96262453  0.53273805  1
  C  C174  1  0.76285521  0.86230541  0.56610270  1
  C  C175  1  0.77956426  0.86545763  0.62914142  1
  C  C176  1  0.78679067  0.77063600  0.66468395  1
  C  C177  1  0.80148547  0.77483393  0.72921581  1
  C  C178  1  0.80618692  0.68126265  0.76397062  1
  C  C179  1  0.81969296  0.68822167  0.83235565  1
  C  C180  1  0.79963158  0.57907361  0.73405271  1
  C  C181  1  0.78659722  0.57217427  0.67135153  1
  C  C182  1  0.77819333  0.66757740  0.63450404  1
  C  C183  1  0.76243004  0.66523273  0.57016692  1
  C  C184  1  0.75394023  0.75968884  0.53486276  1
  C  C185  1  0.72107209  0.87110237  0.37373356  1
  C  C186  1  0.71671919  0.77788526  0.33735122  1
  C  C187  1  0.70625682  0.78500125  0.27260455  1
  I  I188  1  0.25981888  0.93432473  0.98943431  1
  I  I189  1  0.26027955  0.52958895  0.02390702  1
  I  I190  1  0.75816667  0.09999220  0.99198018  1
  I  I191  1  0.76478264  0.46510928  0.97750635  1
  I  I192  1  0.05511197  0.26929188  0.99248399  1
  I  I193  1  0.89441659  0.77131829  0.99221468  1
  I  I194  1  0.44379888  0.23280012  0.97702670  1
  I  I195  1  0.52919350  0.73566644  0.01316784  1
  I  I196  1  0.00029762  0.00579774  0.84529105  1
  I  I197  1  0.01871602  0.98987548  0.14545780  1
  I  I198  1  0.08147019  0.58021785  0.86815299  1
  I  I199  1  0.99782862  0.50083678  0.16293015  1
  I  I200  1  0.56642168  0.92768611  0.85880576  1
  I  I201  1  0.50421327  0.99945318  0.15542576  1
  I  I202  1  0.49621241  0.49886917  0.83201206  1
  I  I203  1  0.51125795  0.48474725  0.13160852  1
  N  N204  1  0.25695244  0.32606663  0.87149301  1
  N  N205  1  0.18967645  0.29237855  0.13418816  1
  N  N206  1  0.31498382  0.73113770  0.87067594  1
  N  N207  1  0.29825177  0.80775822  0.13330523  1
  N  N208  1  0.70812569  0.18964076  0.13828136  1
  N  N209  1  0.68766189  0.28265743  0.86829040  1
  N  N210  1  0.80449559  0.70093426  0.13698922  1
  N  N211  1  0.71393346  0.69156620  0.86811443  1
