# generated using pymatgen
data_H22PbC24(I2N)2
_symmetry_space_group_name_H-M   'P 1'
_cell_length_a   12.18773665
_cell_length_b   12.20329584
_cell_length_c   21.35158847
_cell_angle_alpha   89.72322180
_cell_angle_beta   89.40493967
_cell_angle_gamma   89.73547690
_symmetry_Int_Tables_number   1
_chemical_formula_structural   H22PbC24(I2N)2
_chemical_formula_sum   'H88 Pb4 C96 I16 N8'
_cell_volume   3175.39219323
_cell_formula_units_Z   4
loop_
 _symmetry_equiv_pos_site_id
 _symmetry_equiv_pos_as_xyz
  1  'x, y, z'
loop_
 _atom_site_type_symbol
 _atom_site_label
 _atom_site_symmetry_multiplicity
 _atom_site_fract_x
 _atom_site_fract_y
 _atom_site_fract_z
 _atom_site_occupancy
  H  H0  1  0.21564356  0.24798784  0.91551231  1
  H  H1  1  0.16013894  0.18123988  0.85573267  1
  H  H2  1  0.16219172  0.31918464  0.85569133  1
  H  H3  1  0.36052520  0.17313525  0.85430142  1
  H  H4  1  0.36212335  0.31909997  0.85221548  1
  H  H5  1  0.31312639  0.06686786  0.75935770  1
  H  H6  1  0.29104324  0.06296338  0.64559006  1
  H  H7  1  0.29413008  0.51863887  0.65961963  1
  H  H8  1  0.26578187  0.52400352  0.54510412  1
  H  H9  1  0.23747272  0.43249016  0.44844785  1
  H  H10  1  0.23428944  0.97597143  0.45490575  1
  H  H11  1  0.20588427  0.98133157  0.34039210  1
  H  H12  1  0.18748810  0.08028216  0.24371703  1
  H  H13  1  0.13930326  0.32682111  0.14571817  1
  H  H14  1  0.13770755  0.18085073  0.14781057  1
  H  H15  1  0.33969216  0.31870137  0.14430773  1
  H  H16  1  0.28416935  0.25200836  0.08450961  1
  H  H17  1  0.33763309  0.18076085  0.14431703  1
  H  H18  1  0.18678983  0.43310251  0.24065613  1
  H  H19  1  0.20898143  0.43701176  0.35441650  1
  H  H20  1  0.26258121  0.06748498  0.55155924  1
  H  H21  1  0.31241139  0.41968556  0.75630477  1
  H  H22  1  0.24004204  0.78191675  0.91715323  1
  H  H23  1  0.17725861  0.84153284  0.85643882  1
  H  H24  1  0.31515006  0.83660138  0.85905005  1
  H  H25  1  0.17101877  0.63994913  0.85403778  1
  H  H26  1  0.31726003  0.63923674  0.85262205  1
  H  H27  1  0.06611228  0.68890793  0.75984903  1
  H  H28  1  0.06296221  0.71576433  0.64622128  1
  H  H29  1  0.51897182  0.71928275  0.66042492  1
  H  H30  1  0.52449931  0.73987479  0.54514825  1
  H  H31  1  0.43275649  0.75770864  0.44759241  1
  H  H32  1  0.97552049  0.76007923  0.45484282  1
  H  H33  1  0.98106967  0.78068072  0.33957410  1
  H  H34  1  0.08083270  0.80156007  0.24266375  1
  H  H35  1  0.32901285  0.86022324  0.14600114  1
  H  H36  1  0.18277190  0.86062286  0.14737602  1
  H  H37  1  0.32331072  0.65867718  0.14350596  1
  H  H38  1  0.26005781  0.71809437  0.08287124  1
  H  H39  1  0.18540039  0.66318462  0.14107705  1
  H  H40  1  0.43396435  0.81113208  0.24019355  1
  H  H41  1  0.43706935  0.78422551  0.35381755  1
  H  H42  1  0.06725681  0.74224916  0.55241928  1
  H  H43  1  0.41924296  0.69841804  0.75732844  1
  H  H44  1  0.74522086  0.28257209  0.08510183  1
  H  H45  1  0.81870763  0.33922915  0.14260853  1
  H  H46  1  0.68080476  0.33512615  0.14733860  1
  H  H47  1  0.82996906  0.14013300  0.14580896  1
  H  H48  1  0.68368726  0.13470430  0.14803195  1
  H  H49  1  0.93416832  0.18659776  0.24078188  1
  H  H50  1  0.93674988  0.20851823  0.35447111  1
  H  H51  1  0.47929111  0.20365063  0.34165619  1
  H  H52  1  0.47475525  0.23265101  0.45609271  1
  H  H53  1  0.56764589  0.26274632  0.55255874  1
  H  H54  1  0.02526368  0.26728116  0.54387968  1
  H  H55  1  0.02074805  0.29630206  0.65831432  1
  H  H56  1  0.91927574  0.31380318  0.75612413  1
  H  H57  1  0.67009386  0.35972351  0.85419549  1
  H  H58  1  0.81636113  0.36542528  0.85193040  1
  H  H59  1  0.68176467  0.16062519  0.85733436  1
  H  H60  1  0.75494768  0.21746026  0.91489162  1
  H  H61  1  0.81967693  0.16503282  0.85270931  1
  H  H62  1  0.56590924  0.31334514  0.75922693  1
  H  H63  1  0.56328639  0.29142721  0.64553626  1
  H  H64  1  0.93237247  0.23719364  0.44742804  1
  H  H65  1  0.58079811  0.18619952  0.24384164  1
  H  H66  1  0.71940941  0.73845344  0.08357070  1
  H  H67  1  0.66060100  0.81572209  0.13931884  1
  H  H68  1  0.66349014  0.67851098  0.14664079  1
  H  H69  1  0.85766017  0.82804107  0.14535388  1
  H  H70  1  0.86539233  0.68196084  0.14805053  1
  H  H71  1  0.80167555  0.93309511  0.24003893  1
  H  H72  1  0.77307454  0.93594809  0.35347415  1
  H  H73  1  0.79214103  0.47918913  0.34017217  1
  H  H74  1  0.76877291  0.47498410  0.45529467  1
  H  H75  1  0.74805688  0.56819057  0.55283602  1
  H  H76  1  0.73128412  0.02500542  0.54469379  1
  H  H77  1  0.70786486  0.02080105  0.65981536  1
  H  H78  1  0.68883059  0.91974269  0.75711486  1
  H  H79  1  0.64215585  0.67192973  0.85461613  1
  H  H80  1  0.63438571  0.81801325  0.85190999  1
  H  H81  1  0.83919014  0.68428546  0.86069256  1
  H  H82  1  0.78034330  0.76162831  0.91640483  1
  H  H83  1  0.83629788  0.82148751  0.85331556  1
  H  H84  1  0.69823398  0.56688269  0.75993726  1
  H  H85  1  0.72695045  0.56403791  0.64650977  1
  H  H86  1  0.75197874  0.93179737  0.44715188  1
  H  H87  1  0.81105663  0.58023798  0.24286358  1
  Pb  Pb88  1  0.00287347  0.99739004  0.99843791  1
  Pb  Pb89  1  0.99616913  0.49527627  1.00001861  1
  Pb  Pb90  1  0.50324926  0.00527070  0.00000356  1
  Pb  Pb91  1  0.49643947  0.50232581  0.00156697  1
  C  C92  1  0.31835937  0.24610946  0.83609129  1
  C  C93  1  0.31010333  0.24397476  0.76602316  1
  C  C94  1  0.30566906  0.14372027  0.73342756  1
  C  C95  1  0.29405409  0.14206232  0.66894910  1
  C  C96  1  0.28586545  0.24009048  0.63377231  1
  C  C97  1  0.29346245  0.34141469  0.66654077  1
  C  C98  1  0.28706398  0.44323696  0.63300845  1
  C  C99  1  0.27151051  0.44601708  0.56999293  1
  C  C100  1  0.26106199  0.34697808  0.53479904  1
  C  C101  1  0.24251737  0.35150443  0.47007345  1
  C  C102  1  0.23115380  0.25722655  0.43377642  1
  C  C103  1  0.23899269  0.15299902  0.46520975  1
  C  C104  1  0.22854020  0.05395772  0.43001385  1
  C  C105  1  0.21295603  0.05673950  0.36700666  1
  C  C106  1  0.20651935  0.15855623  0.33347108  1
  C  C107  1  0.19415905  0.15870883  0.26783530  1
  C  C108  1  0.18976900  0.25599390  0.23399612  1
  C  C109  1  0.18147083  0.25384862  0.16393146  1
  C  C110  1  0.19425093  0.35625383  0.26658551  1
  C  C111  1  0.20593213  0.35791166  0.33106234  1
  C  C112  1  0.21414318  0.25988743  0.36623868  1
  C  C113  1  0.25753765  0.14847577  0.52993396  1
  C  C114  1  0.26889032  0.24274777  0.56623010  1
  C  C115  1  0.30575520  0.34126180  0.73218702  1
  C  C116  1  0.24390310  0.68354505  0.83667289  1
  C  C117  1  0.24305793  0.69651572  0.76677564  1
  C  C118  1  0.14299632  0.70030458  0.73411651  1
  C  C119  1  0.14181594  0.71502451  0.66977891  1
  C  C120  1  0.24008456  0.72674270  0.63481451  1
  C  C121  1  0.34143949  0.72084723  0.66766838  1
  C  C122  1  0.44349866  0.72614181  0.63386584  1
  C  C123  1  0.44635016  0.73720264  0.57041093  1
  C  C124  1  0.34723821  0.74444423  0.53504951  1
  C  C125  1  0.35168947  0.75437359  0.46959157  1
  C  C126  1  0.25720234  0.76019015  0.43310228  1
  C  C127  1  0.15277496  0.75551695  0.46495759  1
  C  C128  1  0.05367304  0.76275360  0.42959436  1
  C  C129  1  0.05653513  0.77382219  0.36613000  1
  C  C130  1  0.15860704  0.77912778  0.33234143  1
  C  C131  1  0.15923640  0.79430892  0.26675780  1
  C  C132  1  0.25702356  0.80350301  0.23324501  1
  C  C133  1  0.25620828  0.81647250  0.16334824  1
  C  C134  1  0.35706965  0.79971807  0.26591710  1
  C  C135  1  0.35822851  0.78496923  0.33024821  1
  C  C136  1  0.25994053  0.77323371  0.36519619  1
  C  C137  1  0.14832153  0.74558725  0.53041909  1
  C  C138  1  0.24281455  0.73977384  0.56691073  1
  C  C139  1  0.34082765  0.70568068  0.73324603  1
  C  C140  1  0.75556544  0.18025171  0.16413140  1
  C  C141  1  0.75672540  0.18886754  0.23423751  1
  C  C142  1  0.85687104  0.19351479  0.26669040  1
  C  C143  1  0.85771682  0.20526646  0.33117990  1
  C  C144  1  0.75914283  0.21346374  0.36635103  1
  C  C145  1  0.65766803  0.20566074  0.33377677  1
  C  C146  1  0.55539014  0.21150813  0.36773496  1
  C  C147  1  0.55289604  0.22742716  0.43082586  1
  C  C148  1  0.65233733  0.23867276  0.46562967  1
  C  C149  1  0.64851013  0.25765221  0.53037709  1
  C  C150  1  0.74334183  0.26920995  0.56612228  1
  C  C151  1  0.84768301  0.26127105  0.53435719  1
  C  C152  1  0.94712738  0.27251384  0.56915264  1
  C  C153  1  0.94464525  0.28844532  0.63223899  1
  C  C154  1  0.84237489  0.29430121  0.66620015  1
  C  C155  1  0.84117974  0.30665750  0.73186978  1
  C  C156  1  0.74335333  0.31110772  0.76574677  1
  C  C157  1  0.74455707  0.31974001  0.83585425  1
  C  C158  1  0.64319655  0.30644141  0.73330678  1
  C  C159  1  0.64233090  0.29468694  0.66882036  1
  C  C160  1  0.74089201  0.28648935  0.63363943  1
  C  C161  1  0.85151258  0.24228987  0.46960786  1
  C  C162  1  0.75668045  0.23073535  0.43386195  1
  C  C163  1  0.65888415  0.19332749  0.26810688  1
  C  C164  1  0.81772923  0.75372807  0.16347760  1
  C  C165  1  0.80431886  0.75574279  0.23339966  1
  C  C166  1  0.79439752  0.85594385  0.26573978  1
  C  C167  1  0.77860014  0.85692782  0.33009254  1
  C  C168  1  0.77274446  0.75856674  0.36522727  1
  C  C169  1  0.78453636  0.65714433  0.33263686  1
  C  C170  1  0.78257179  0.55514878  0.36650314  1
  C  C171  1  0.76992036  0.55285205  0.42992725  1
  C  C172  1  0.75902187  0.65228953  0.46510194  1
  C  C173  1  0.74912320  0.64880671  0.53057794  1
  C  C174  1  0.74013336  0.74367246  0.56684934  1
  C  C175  1  0.74101893  0.84769795  0.53488514  1
  C  C176  1  0.73011970  0.94713709  0.57006067  1
  C  C177  1  0.71744039  0.94483653  0.63348228  1
  C  C178  1  0.71544061  0.84284011  0.66734908  1
  C  C179  1  0.69991138  0.84180815  0.73287267  1
  C  C180  1  0.69554437  0.74423587  0.76657641  1
  C  C181  1  0.68207076  0.74625120  0.83649096  1
  C  C182  1  0.70552183  0.64403479  0.73423900  1
  C  C183  1  0.72138948  0.64305432  0.66988866  1
  C  C184  1  0.72726122  0.74141793  0.63475735  1
  C  C185  1  0.75091661  0.85117557  0.46941103  1
  C  C186  1  0.75990061  0.75631622  0.43313923  1
  C  C187  1  0.79999582  0.65817243  0.26710407  1
  I  I188  1  0.25218977  0.07491094  0.99706241  1
  I  I189  1  0.24737571  0.42501905  0.00296360  1
  I  I190  1  0.75240097  0.92551014  0.00181778  1
  I  I191  1  0.74714198  0.57448272  0.99811178  1
  I  I192  1  0.92478079  0.24580203  0.99738301  1
  I  I193  1  0.07312222  0.74499661  0.00177677  1
  I  I194  1  0.57607204  0.25430223  0.00258672  1
  I  I195  1  0.42770694  0.75508130  0.99829224  1
  I  I196  1  0.00474452  0.99438446  0.84069763  1
  I  I197  1  0.00628059  0.99764623  0.14430023  1
  I  I198  1  0.00476952  0.48987707  0.84903451  1
  I  I199  1  0.98089331  0.48725957  0.15098713  1
  I  I200  1  0.51930093  0.01305384  0.84901388  1
  I  I201  1  0.49509810  0.01046920  0.15098018  1
  I  I202  1  0.49363136  0.50215732  0.85568284  1
  I  I203  1  0.49510470  0.50560877  0.15930111  1
  N  N204  1  0.20645426  0.24909562  0.86717810  1
  N  N205  1  0.29337272  0.25086429  0.13284308  1
  N  N206  1  0.24434964  0.79350916  0.86891081  1
  N  N207  1  0.25602219  0.70650320  0.13111771  1
  N  N208  1  0.74986147  0.29178358  0.13335713  1
  N  N209  1  0.75048763  0.20822596  0.86663376  1
  N  N210  1  0.70775161  0.74628735  0.13168124  1
  N  N211  1  0.79203382  0.75372919  0.86829966  1
