# generated using pymatgen
data_H10PbC8(IN)4
_symmetry_space_group_name_H-M   'P 1'
_cell_length_a   12.21410500
_cell_length_b   12.17848069
_cell_length_c   13.13903765
_cell_angle_alpha   90.43028148
_cell_angle_beta   90.60556163
_cell_angle_gamma   89.82163371
_symmetry_Int_Tables_number   1
_chemical_formula_structural   H10PbC8(IN)4
_chemical_formula_sum   'H40 Pb4 C32 I16 N16'
_cell_volume   1954.24862854
_cell_formula_units_Z   4
loop_
 _symmetry_equiv_pos_site_id
 _symmetry_equiv_pos_as_xyz
  1  'x, y, z'
loop_
 _atom_site_type_symbol
 _atom_site_label
 _atom_site_symmetry_multiplicity
 _atom_site_fract_x
 _atom_site_fract_y
 _atom_site_fract_z
 _atom_site_occupancy
  H  H0  1  0.17909848  0.16104272  0.76827263  1
  H  H1  1  0.31554685  0.16168368  0.76987225  1
  H  H2  1  0.24671826  0.24228833  0.85262929  1
  H  H3  1  0.31929308  0.35797448  0.72561857  1
  H  H4  1  0.17457101  0.35856931  0.72337959  1
  H  H5  1  0.24823860  0.43542396  0.53768879  1
  H  H6  1  0.24839524  0.46647369  0.33661803  1
  H  H7  1  0.25069094  0.36902336  0.16460347  1
  H  H8  1  0.25194556  0.17697286  0.15978882  1
  H  H9  1  0.24945619  0.03386004  0.47381812  1
  H  H10  1  0.16383897  0.82152810  0.76995667  1
  H  H11  1  0.16120459  0.68389170  0.76788168  1
  H  H12  1  0.24288683  0.74994669  0.85244482  1
  H  H13  1  0.35802187  0.67792849  0.72418618  1
  H  H14  1  0.35717131  0.82351136  0.72445463  1
  H  H15  1  0.43413551  0.75057546  0.53752292  1
  H  H16  1  0.46464950  0.75046405  0.33704772  1
  H  H17  1  0.36772284  0.75256172  0.16475960  1
  H  H18  1  0.17599887  0.75304918  0.15950909  1
  H  H19  1  0.03359342  0.74970516  0.47350600  1
  H  H20  1  0.83825092  0.31586384  0.23193864  1
  H  H21  1  0.83557022  0.17825208  0.23021264  1
  H  H22  1  0.75636968  0.24960446  0.14769743  1
  H  H23  1  0.64210845  0.17683648  0.27591677  1
  H  H24  1  0.64172869  0.32242676  0.27603948  1
  H  H25  1  0.56558954  0.24958698  0.46274251  1
  H  H26  1  0.53516670  0.24862209  0.66317112  1
  H  H27  1  0.63217705  0.24650759  0.83546947  1
  H  H28  1  0.82385372  0.24710876  0.84061426  1
  H  H29  1  0.96616122  0.25032346  0.52653889  1
  H  H30  1  0.68473866  0.83871266  0.23019306  1
  H  H31  1  0.82121802  0.83886988  0.23143477  1
  H  H32  1  0.75322574  0.75788474  0.14724824  1
  H  H33  1  0.82518997  0.64145078  0.27663971  1
  H  H34  1  0.68046518  0.64239836  0.27420908  1
  H  H35  1  0.75141507  0.56483757  0.46222934  1
  H  H36  1  0.75172025  0.53377400  0.66326195  1
  H  H37  1  0.74963087  0.63122503  0.83529861  1
  H  H38  1  0.74863622  0.82327348  0.84013389  1
  H  H39  1  0.75038231  0.96639957  0.52607880  1
  Pb  Pb40  1  0.00256706  0.00174335  0.99970406  1
  Pb  Pb41  1  0.99978249  0.50054843  0.00034594  1
  Pb  Pb42  1  0.50224029  0.99749478  0.00032990  1
  Pb  Pb43  1  0.50020174  0.49844320  0.99889188  1
  C  C44  1  0.24695523  0.30696799  0.70728518  1
  C  C45  1  0.24799430  0.27087037  0.59783011  1
  C  C46  1  0.24847941  0.34757192  0.52054324  1
  C  C47  1  0.24896464  0.31012931  0.41854051  1
  C  C48  1  0.24874694  0.37741989  0.33161738  1
  C  C49  1  0.25011207  0.32648812  0.23745927  1
  C  C50  1  0.24938987  0.19363891  0.40094222  1
  C  C51  1  0.24910598  0.12263996  0.48670984  1
  C  C52  1  0.30676348  0.75045161  0.70713373  1
  C  C53  1  0.27023371  0.75013348  0.59773760  1
  C  C54  1  0.34645857  0.75048926  0.52047569  1
  C  C55  1  0.30883552  0.75096999  0.41850615  1
  C  C56  1  0.37590634  0.75090457  0.33175873  1
  C  C57  1  0.32510436  0.75225052  0.23739830  1
  C  C58  1  0.19267777  0.75119809  0.40075822  1
  C  C59  1  0.12213173  0.75010924  0.48651513  1
  C  C60  1  0.69276458  0.24974290  0.29310150  1
  C  C61  1  0.72944209  0.25002858  0.40245768  1
  C  C62  1  0.65327467  0.24961655  0.47975184  1
  C  C63  1  0.69095072  0.24896409  0.58169647  1
  C  C64  1  0.62389956  0.24859001  0.66846755  1
  C  C65  1  0.67474970  0.24721469  0.76279952  1
  C  C66  1  0.80711176  0.24888770  0.59937290  1
  C  C67  1  0.87761531  0.24998523  0.51357545  1
  C  C68  1  0.75290811  0.69323875  0.29262518  1
  C  C69  1  0.75182684  0.72938174  0.40206297  1
  C  C70  1  0.75123324  0.65269747  0.47937020  1
  C  C71  1  0.75080551  0.69013683  0.58136016  1
  C  C72  1  0.75120760  0.62285511  0.66828522  1
  C  C73  1  0.75000978  0.67376466  0.76243129  1
  C  C74  1  0.75040927  0.80664373  0.59895957  1
  C  C75  1  0.75075141  0.87761333  0.51317752  1
  I  I76  1  0.25262034  0.07021966  0.01014609  1
  I  I77  1  0.25044579  0.42991363  0.96813086  1
  I  I78  1  0.75218693  0.93003730  0.98957620  1
  I  I79  1  0.74921661  0.57007838  0.03161522  1
  I  I80  1  0.92791302  0.25125727  0.99324647  1
  I  I81  1  0.07037069  0.75034579  0.00726138  1
  I  I82  1  0.56776602  0.24842783  0.03442672  1
  I  I83  1  0.43010922  0.74838912  0.96623983  1
  I  I84  1  0.03767705  0.99521602  0.75481030  1
  I  I85  1  0.96323968  0.00614312  0.24440869  1
  I  I86  1  0.00823557  0.52109885  0.75145206  1
  I  I87  1  0.99159628  0.47943360  0.24908361  1
  I  I88  1  0.47605792  0.02213810  0.75434294  1
  I  I89  1  0.52513778  0.97663031  0.24707446  1
  I  I90  1  0.50477192  0.49430812  0.74743087  1
  I  I91  1  0.49528439  0.50522404  0.25011716  1
  N  N92  1  0.24679647  0.21257125  0.77833692  1
  N  N93  1  0.25101445  0.21572728  0.23160708  1
  N  N94  1  0.25035020  0.14680934  0.30770994  1
  N  N95  1  0.24849383  0.15977647  0.58076645  1
  N  N96  1  0.21288022  0.75122559  0.77818237  1
  N  N97  1  0.21463418  0.75268498  0.23136692  1
  N  N98  1  0.14590010  0.75183672  0.30736090  1
  N  N99  1  0.15943644  0.74948934  0.58059578  1
  N  N100  1  0.78650627  0.24857512  0.22191239  1
  N  N101  1  0.78521560  0.24725639  0.76876585  1
  N  N102  1  0.85392987  0.24833847  0.69274436  1
  N  N103  1  0.84025378  0.25061125  0.41950844  1
  N  N104  1  0.75336785  0.78759616  0.22153693  1
  N  N105  1  0.74905417  0.78452245  0.76829350  1
  N  N106  1  0.74961566  0.85344279  0.69220003  1
  N  N107  1  0.75146593  0.84048573  0.41914373  1
