# generated using pymatgen
data_H10PbC8(IN)4
_symmetry_space_group_name_H-M   'P 1'
_cell_length_a   12.24986219
_cell_length_b   12.16787429
_cell_length_c   13.12777735
_cell_angle_alpha   90.76822767
_cell_angle_beta   91.18412832
_cell_angle_gamma   89.87677039
_symmetry_Int_Tables_number   1
_chemical_formula_structural   H10PbC8(IN)4
_chemical_formula_sum   'H40 Pb4 C32 I16 N16'
_cell_volume   1956.16084882
_cell_formula_units_Z   4
loop_
 _symmetry_equiv_pos_site_id
 _symmetry_equiv_pos_as_xyz
  1  'x, y, z'
loop_
 _atom_site_type_symbol
 _atom_site_label
 _atom_site_symmetry_multiplicity
 _atom_site_fract_x
 _atom_site_fract_y
 _atom_site_fract_z
 _atom_site_occupancy
  H  H0  1  0.33270536  0.17969817  0.77200339  1
  H  H1  1  0.19856731  0.16156823  0.76758091  1
  H  H2  1  0.25299175  0.25604269  0.84945857  1
  H  H3  1  0.16901767  0.35484307  0.71481687  1
  H  H4  1  0.31232751  0.37116607  0.71470256  1
  H  H5  1  0.25123041  0.02896789  0.47485601  1
  H  H6  1  0.25818315  0.06634775  0.27630848  1
  H  H7  1  0.26051322  0.19713536  0.15096438  1
  H  H8  1  0.26047108  0.38771329  0.17550404  1
  H  H9  1  0.25475871  0.46679154  0.35487415  1
  H  H10  1  0.18368371  0.66476455  0.76993331  1
  H  H11  1  0.16308602  0.79984377  0.76760173  1
  H  H12  1  0.25720821  0.74694140  0.84942130  1
  H  H13  1  0.35319258  0.83195983  0.71761130  1
  H  H14  1  0.37259612  0.68741449  0.71354848  1
  H  H15  1  0.03061289  0.74740080  0.47447500  1
  H  H16  1  0.06708684  0.74231938  0.27575726  1
  H  H17  1  0.19663622  0.74194874  0.15055512  1
  H  H18  1  0.38625587  0.74306997  0.17594077  1
  H  H19  1  0.46496381  0.74768563  0.35570252  1
  H  H20  1  0.81587672  0.16647931  0.22852636  1
  H  H21  1  0.83688795  0.30147537  0.23328764  1
  H  H22  1  0.74247812  0.24863685  0.15063694  1
  H  H23  1  0.64617141  0.33398679  0.28488824  1
  H  H24  1  0.62777891  0.18944443  0.28505281  1
  H  H25  1  0.96976490  0.25074711  0.52524291  1
  H  H26  1  0.93366522  0.24505666  0.72403800  1
  H  H27  1  0.80415234  0.24196012  0.84927325  1
  H  H28  1  0.61462275  0.24254449  0.82413153  1
  H  H29  1  0.53565690  0.24743097  0.64441171  1
  H  H30  1  0.83003492  0.82121792  0.22997007  1
  H  H31  1  0.69532035  0.83772158  0.23101238  1
  H  H32  1  0.75092669  0.74404337  0.15043228  1
  H  H33  1  0.66881263  0.64537975  0.28308483  1
  H  H34  1  0.81201191  0.62839484  0.28636047  1
  H  H35  1  0.74989068  0.97083466  0.52509798  1
  H  H36  1  0.75419236  0.93339734  0.72394310  1
  H  H37  1  0.75637554  0.80262368  0.84932045  1
  H  H38  1  0.75617929  0.61203122  0.82468848  1
  H  H39  1  0.75252460  0.53298674  0.64518315  1
  Pb  Pb40  1  0.00195182  0.99928126  0.99997094  1
  Pb  Pb41  1  0.99954143  0.49819609  0.00112411  1
  Pb  Pb42  1  0.50055615  0.99891140  0.00135600  1
  Pb  Pb43  1  0.50118064  0.50016412  0.99716743  1
  C  C44  1  0.24644493  0.31068258  0.70057256  1
  C  C45  1  0.24877007  0.26839562  0.59303999  1
  C  C46  1  0.25123004  0.11824622  0.48604754  1
  C  C47  1  0.25396286  0.18926305  0.40124934  1
  C  C48  1  0.25709802  0.15250017  0.29981347  1
  C  C49  1  0.25843383  0.33743795  0.24346841  1
  C  C50  1  0.25492093  0.37862864  0.34111107  1
  C  C51  1  0.25268959  0.30498108  0.42325780  1
  C  C52  1  0.31157526  0.75291107  0.70109197  1
  C  C53  1  0.26899459  0.75036515  0.59336086  1
  C  C54  1  0.11932639  0.74775641  0.48596142  1
  C  C55  1  0.18952590  0.74623278  0.40120998  1
  C  C56  1  0.15263814  0.74356489  0.29944923  1
  C  C57  1  0.33624876  0.74423051  0.24361782  1
  C  C58  1  0.37737598  0.74696368  0.34162873  1
  C  C59  1  0.30451299  0.74810849  0.42361410  1
  C  C60  1  0.68835148  0.25501067  0.29924836  1
  C  C61  1  0.73113589  0.25170447  0.40679746  1
  C  C62  1  0.88103573  0.25041337  0.51391329  1
  C  C63  1  0.81101235  0.24834785  0.59875263  1
  C  C64  1  0.84806729  0.24590372  0.70040200  1
  C  C65  1  0.66450862  0.24430832  0.75641496  1
  C  C66  1  0.62323475  0.24707675  0.65850774  1
  C  C67  1  0.69596979  0.24863664  0.57650173  1
  C  C68  1  0.74661038  0.68925520  0.29909317  1
  C  C69  1  0.74970782  0.73147834  0.40675869  1
  C  C70  1  0.75035163  0.88155407  0.51390791  1
  C  C71  1  0.75185457  0.81052936  0.59879803  1
  C  C72  1  0.75386893  0.84727002  0.70037329  1
  C  C73  1  0.75484836  0.66233968  0.75667198  1
  C  C74  1  0.75284635  0.62115583  0.65890507  1
  C  C75  1  0.75163639  0.69483968  0.57667849  1
  I  I76  1  0.25104685  0.07236417  0.00610433  1
  I  I77  1  0.24955645  0.42867442  0.97192397  1
  I  I78  1  0.75194910  0.92965970  0.99333679  1
  I  I79  1  0.75041120  0.57329487  0.02750895  1
  I  I80  1  0.92542690  0.24807439  0.99883964  1
  I  I81  1  0.07294720  0.74840200  0.00184886  1
  I  I82  1  0.57097775  0.24953519  0.02927910  1
  I  I83  1  0.42652517  0.75065391  0.97099098  1
  I  I84  1  0.02563755  0.99952504  0.75298986  1
  I  I85  1  0.97837893  0.99198370  0.24914153  1
  I  I86  1  0.00644754  0.50388236  0.75236397  1
  I  I87  1  0.99365077  0.48980354  0.24817095  1
  I  I88  1  0.48155594  0.01709845  0.75520680  1
  I  I89  1  0.52362646  0.98191531  0.24662755  1
  I  I90  1  0.50034868  0.49381504  0.75231989  1
  I  I91  1  0.50065453  0.50456598  0.24337659  1
  N  N92  1  0.25836480  0.22155572  0.77657981  1
  N  N93  1  0.24851049  0.15636830  0.58022143  1
  N  N94  1  0.25911746  0.22683883  0.22603525  1
  N  N95  1  0.24995344  0.34342283  0.52097354  1
  N  N96  1  0.22308111  0.74013959  0.77609816  1
  N  N97  1  0.15765390  0.74984098  0.58031878  1
  N  N98  1  0.22630669  0.74301079  0.22571611  1
  N  N99  1  0.34316203  0.75034732  0.52151983  1
  N  N100  1  0.77670365  0.24209850  0.22375680  1
  N  N101  1  0.84249532  0.25203905  0.41966978  1
  N  N102  1  0.77445360  0.24351240  0.77413312  1
  N  N103  1  0.65710269  0.24986211  0.47870206  1
  N  N104  1  0.75653140  0.77856605  0.22348827  1
  N  N105  1  0.74943734  0.84348192  0.41963210  1
  N  N106  1  0.75531407  0.77292615  0.77422233  1
  N  N107  1  0.75090118  0.65641920  0.47886675  1
