# generated using pymatgen
data_H10PbC8(IN)4
_symmetry_space_group_name_H-M   'P 1'
_cell_length_a   12.13792764
_cell_length_b   12.06101664
_cell_length_c   13.33879457
_cell_angle_alpha   90.94822837
_cell_angle_beta   90.23663574
_cell_angle_gamma   89.30249512
_symmetry_Int_Tables_number   1
_chemical_formula_structural   H10PbC8(IN)4
_chemical_formula_sum   'H40 Pb4 C32 I16 N16'
_cell_volume   1952.31563343
_cell_formula_units_Z   4
loop_
 _symmetry_equiv_pos_site_id
 _symmetry_equiv_pos_as_xyz
  1  'x, y, z'
loop_
 _atom_site_type_symbol
 _atom_site_label
 _atom_site_symmetry_multiplicity
 _atom_site_fract_x
 _atom_site_fract_y
 _atom_site_fract_z
 _atom_site_occupancy
  H  H0  1  0.25048546  0.22195973  0.85041034  1
  H  H1  1  0.31837612  0.31334002  0.77967065  1
  H  H2  1  0.18064931  0.31510136  0.78005690  1
  H  H3  1  0.17420467  0.12539512  0.70974276  1
  H  H4  1  0.31951358  0.11953579  0.71085163  1
  H  H5  1  0.24453110  0.39696588  0.63439371  1
  H  H6  1  0.24429841  0.45537787  0.45645577  1
  H  H7  1  0.24636543  0.39108375  0.26573339  1
  H  H8  1  0.25083843  0.23916056  0.15572494  1
  H  H9  1  0.25616826  0.05305561  0.20326181  1
  H  H10  1  0.21764910  0.74728218  0.85016222  1
  H  H11  1  0.30727033  0.67344198  0.77912368  1
  H  H12  1  0.31227919  0.81340232  0.78138710  1
  H  H13  1  0.12277184  0.82355189  0.71213566  1
  H  H14  1  0.12157747  0.67662691  0.70807825  1
  H  H15  1  0.39550454  0.75151643  0.63490901  1
  H  H16  1  0.45641988  0.75312328  0.45694999  1
  H  H17  1  0.39542820  0.75115079  0.26638999  1
  H  H18  1  0.24622792  0.75098855  0.15599093  1
  H  H19  1  0.06027241  0.75283896  0.20345681  1
  H  H20  1  0.78228938  0.24771738  0.14971304  1
  H  H21  1  0.68810605  0.18215646  0.21965139  1
  H  H22  1  0.69221861  0.32211147  0.21958442  1
  H  H23  1  0.87717792  0.32254145  0.29117509  1
  H  H24  1  0.87847965  0.17558098  0.28851696  1
  H  H25  1  0.60446228  0.24889732  0.36517441  1
  H  H26  1  0.54364644  0.24655566  0.54314042  1
  H  H27  1  0.60477611  0.24630284  0.73367442  1
  H  H28  1  0.75413513  0.24630229  0.84396384  1
  H  H29  1  0.94001617  0.24544785  0.79637087  1
  H  H30  1  0.75405308  0.77851298  0.14960255  1
  H  H31  1  0.82262865  0.68509979  0.22084810  1
  H  H32  1  0.68495455  0.68703492  0.21901839  1
  H  H33  1  0.68164942  0.87983740  0.28874770  1
  H  H34  1  0.82701397  0.87555337  0.29097069  1
  H  H35  1  0.75486292  0.60302825  0.36553686  1
  H  H36  1  0.75599181  0.54453616  0.54345703  1
  H  H37  1  0.75609561  0.60874848  0.73423608  1
  H  H38  1  0.75199162  0.76053746  0.84432005  1
  H  H39  1  0.74607978  0.94673253  0.79690021  1
  Pb  Pb40  1  0.00120981  0.99984684  0.99999031  1
  Pb  Pb41  1  0.99974609  0.49933035  0.00007128  1
  Pb  Pb42  1  0.50032253  0.99923865  0.00001405  1
  Pb  Pb43  1  0.50015613  0.49995100  0.00024193  1
  C  C44  1  0.24853079  0.17625251  0.69961515  1
  C  C45  1  0.24947807  0.21969350  0.59500753  1
  C  C46  1  0.24670085  0.33518927  0.57398836  1
  C  C47  1  0.24646536  0.36795478  0.47590251  1
  C  C48  1  0.24873021  0.28506338  0.39948769  1
  C  C49  1  0.24838831  0.30805747  0.29707091  1
  C  C50  1  0.25425451  0.11508298  0.26337279  1
  C  C51  1  0.25199686  0.17030952  0.42793746  1
  C  C52  1  0.17536482  0.74900149  0.69947515  1
  C  C53  1  0.22010902  0.75001694  0.59521101  1
  C  C54  1  0.33520180  0.75097762  0.57427391  1
  C  C55  1  0.36929919  0.75238820  0.47638762  1
  C  C56  1  0.28811451  0.75287136  0.39979852  1
  C  C57  1  0.31243163  0.75244058  0.29750913  1
  C  C58  1  0.12110217  0.75332886  0.26348328  1
  C  C59  1  0.17361904  0.75230224  0.42814792  1
  C  C60  1  0.82462735  0.24932152  0.30045424  1
  C  C61  1  0.77991244  0.24870303  0.40476198  1
  C  C62  1  0.66480270  0.24857723  0.42572845  1
  C  C63  1  0.63074771  0.24687726  0.52367103  1
  C  C64  1  0.71198384  0.24562468  0.60020351  1
  C  C65  1  0.68777348  0.24538152  0.70247644  1
  C  C66  1  0.87912127  0.24481028  0.73637647  1
  C  C67  1  0.82646789  0.24619483  0.57179036  1
  C  C68  1  0.75315636  0.82389277  0.30047612  1
  C  C69  1  0.75178793  0.78031346  0.40502754  1
  C  C70  1  0.75362979  0.66478695  0.42599700  1
  C  C71  1  0.75425021  0.63199255  0.52405460  1
  C  C72  1  0.75288982  0.71482994  0.60052094  1
  C  C73  1  0.75386234  0.69179341  0.70295172  1
  C  C74  1  0.74799196  0.88474906  0.73674851  1
  C  C75  1  0.74972634  0.82960404  0.57213756  1
  I  I76  1  0.25020831  0.08206533  0.98687081  1
  I  I77  1  0.25172395  0.41970290  0.03509164  1
  I  I78  1  0.75153609  0.91945217  0.01347804  1
  I  I79  1  0.74807941  0.58157427  0.96572646  1
  I  I80  1  0.91986504  0.25083337  0.01278956  1
  I  I81  1  0.07907634  0.74784019  0.98657730  1
  I  I82  1  0.58396838  0.24824015  0.97164170  1
  I  I83  1  0.41482387  0.75122753  0.02791401  1
  I  I84  1  0.00239495  0.99611203  0.76253119  1
  I  I85  1  0.00014762  0.00332332  0.23741363  1
  I  I86  1  0.03988106  0.47792911  0.76206893  1
  I  I87  1  0.96026203  0.52067317  0.23821188  1
  I  I88  1  0.47251645  0.95695155  0.76090899  1
  I  I89  1  0.52825577  0.04142595  0.23955095  1
  I  I90  1  0.44797994  0.49605553  0.75681856  1
  I  I91  1  0.55223846  0.50301569  0.24273055  1
  N  N92  1  0.24981654  0.26217132  0.78132225  1
  N  N93  1  0.25083448  0.22301539  0.23198271  1
  N  N94  1  0.25512187  0.08734192  0.35763565  1
  N  N95  1  0.25280353  0.13989166  0.52490600  1
  N  N96  1  0.25913171  0.74565474  0.78133589  1
  N  N97  1  0.22876637  0.75230342  0.23221370  1
  N  N98  1  0.09233710  0.75258790  0.35776184  1
  N  N99  1  0.14186166  0.75025680  0.52493777  1
  N  N100  1  0.74084469  0.25029922  0.21855480  1
  N  N101  1  0.77145875  0.24528397  0.76772175  1
  N  N102  1  0.90779970  0.24590606  0.64211932  1
  N  N103  1  0.85816730  0.24814546  0.47496221  1
  N  N104  1  0.75351830  0.73813199  0.21860424  1
  N  N105  1  0.75175219  0.77680049  0.76807825  1
  N  N106  1  0.74674497  0.91254296  0.64249693  1
  N  N107  1  0.74895470  0.86007487  0.47519177  1
