# generated using pymatgen
data_H22PbC15(I2N)2
_symmetry_space_group_name_H-M   'P 1'
_cell_length_a   12.47619904
_cell_length_b   12.28993820
_cell_length_c   18.31367813
_cell_angle_alpha   89.85200721
_cell_angle_beta   89.87315281
_cell_angle_gamma   89.40843695
_symmetry_Int_Tables_number   1
_chemical_formula_structural   H22PbC15(I2N)2
_chemical_formula_sum   'H88 Pb4 C60 I16 N8'
_cell_volume   2807.90192470
_cell_formula_units_Z   4
loop_
 _symmetry_equiv_pos_site_id
 _symmetry_equiv_pos_as_xyz
  1  'x, y, z'
loop_
 _atom_site_type_symbol
 _atom_site_label
 _atom_site_symmetry_multiplicity
 _atom_site_fract_x
 _atom_site_fract_y
 _atom_site_fract_z
 _atom_site_occupancy
  H  H0  1  0.37197647  0.15591597  0.83936729  1
  H  H1  1  0.39425011  0.29225751  0.84077301  1
  H  H2  1  0.31733906  0.23363384  0.90445287  1
  H  H3  1  0.21994308  0.34125933  0.81136377  1
  H  H4  1  0.17423143  0.20585170  0.82481104  1
  H  H5  1  0.27845664  0.14177411  0.71693925  1
  H  H6  1  0.33489910  0.27240733  0.70485709  1
  H  H7  1  0.15081685  0.35212608  0.68447706  1
  H  H8  1  0.09487141  0.22178371  0.69624768  1
  H  H9  1  0.17807084  0.06618168  0.60936949  1
  H  H10  1  0.19535848  0.02575046  0.47825286  1
  H  H11  1  0.20317478  0.09005850  0.34940760  1
  H  H12  1  0.16385756  0.29904928  0.20711806  1
  H  H13  1  0.17775834  0.15741612  0.22405605  1
  H  H14  1  0.37629934  0.17659415  0.23801816  1
  H  H15  1  0.36474446  0.32059204  0.22661388  1
  H  H16  1  0.30041960  0.29234972  0.10381753  1
  H  H17  1  0.41801147  0.22938276  0.11544149  1
  H  H18  1  0.30637367  0.15759514  0.11313891  1
  H  H19  1  0.20740635  0.43403757  0.30376417  1
  H  H20  1  0.20270502  0.47496410  0.43602418  1
  H  H21  1  0.18793347  0.41032029  0.56434968  1
  H  H22  1  0.16092204  0.62743317  0.84115751  1
  H  H23  1  0.29366088  0.59811456  0.83820041  1
  H  H24  1  0.24474550  0.67859579  0.90393062  1
  H  H25  1  0.34339926  0.77771517  0.81051366  1
  H  H26  1  0.21013027  0.82545058  0.82520163  1
  H  H27  1  0.14566514  0.72170726  0.71752229  1
  H  H28  1  0.27447406  0.66289858  0.70427595  1
  H  H29  1  0.35111427  0.84922374  0.68360394  1
  H  H30  1  0.22237206  0.90731626  0.69615955  1
  H  H31  1  0.06892974  0.82225089  0.60990862  1
  H  H32  1  0.02836307  0.80427872  0.47870433  1
  H  H33  1  0.09176253  0.79657767  0.34925062  1
  H  H34  1  0.29703467  0.83825661  0.20754170  1
  H  H35  1  0.15778696  0.82270729  0.22398751  1
  H  H36  1  0.18324635  0.62120335  0.23752104  1
  H  H37  1  0.32461954  0.63475091  0.22380814  1
  H  H38  1  0.28860908  0.70400647  0.10193627  1
  H  H39  1  0.23313021  0.58292415  0.11305232  1
  H  H40  1  0.15642322  0.69374290  0.11490101  1
  H  H41  1  0.43005535  0.79213585  0.30355680  1
  H  H42  1  0.47066459  0.79676539  0.43611836  1
  H  H43  1  0.40774744  0.81256738  0.56367302  1
  H  H44  1  0.83982528  0.12903699  0.16061434  1
  H  H45  1  0.70638991  0.10418118  0.16074575  1
  H  H46  1  0.76096587  0.18317168  0.09624167  1
  H  H47  1  0.65810616  0.28362906  0.18975307  1
  H  H48  1  0.79128172  0.32872631  0.17505371  1
  H  H49  1  0.85618519  0.22323774  0.28258155  1
  H  H50  1  0.72791528  0.16579350  0.29570121  1
  H  H51  1  0.64961881  0.35287937  0.31639255  1
  H  H52  1  0.77803007  0.40954467  0.30440086  1
  H  H53  1  0.93196061  0.32164409  0.39089398  1
  H  H54  1  0.97119045  0.30186329  0.52216051  1
  H  H55  1  0.90694342  0.29675987  0.65099942  1
  H  H56  1  0.70104046  0.34165904  0.79182305  1
  H  H57  1  0.84065330  0.32622027  0.77522387  1
  H  H58  1  0.82038496  0.12435920  0.76517125  1
  H  H59  1  0.67879403  0.13737758  0.77844495  1
  H  H60  1  0.71106898  0.20897204  0.89895303  1
  H  H61  1  0.77410291  0.09035474  0.89025117  1
  H  H62  1  0.84372498  0.20394635  0.88708043  1
  H  H63  1  0.56804202  0.29401199  0.69593243  1
  H  H64  1  0.52849742  0.29719592  0.56337531  1
  H  H65  1  0.59263925  0.31377930  0.43552192  1
  H  H66  1  0.86906951  0.84040970  0.15838793  1
  H  H67  1  0.89543942  0.70459611  0.15840740  1
  H  H68  1  0.81618126  0.75927681  0.09445129  1
  H  H69  1  0.72154003  0.65511737  0.18861507  1
  H  H70  1  0.67350627  0.79082452  0.17575351  1
  H  H71  1  0.77889878  0.85475207  0.28203004  1
  H  H72  1  0.83736409  0.72376900  0.29394063  1
  H  H73  1  0.65372963  0.64600786  0.31602621  1
  H  H74  1  0.59734965  0.77708194  0.30412996  1
  H  H75  1  0.68032406  0.93197245  0.38993149  1
  H  H76  1  0.69570831  0.97281442  0.52151068  1
  H  H77  1  0.70133599  0.90800949  0.65066251  1
  H  H78  1  0.66248699  0.69955904  0.79252667  1
  H  H79  1  0.67388998  0.84099971  0.77529076  1
  H  H80  1  0.87322640  0.82066220  0.76127001  1
  H  H81  1  0.86340274  0.67702922  0.77440732  1
  H  H82  1  0.79527002  0.70949120  0.89638304  1
  H  H83  1  0.91276434  0.77025850  0.88539720  1
  H  H84  1  0.80111702  0.84388216  0.88521436  1
  H  H85  1  0.70750790  0.56371683  0.69592595  1
  H  H86  1  0.70454491  0.52341558  0.56380844  1
  H  H87  1  0.69013462  0.58785055  0.43596074  1
  Pb  Pb88  1  0.02309048  0.00778022  0.99954708  1
  Pb  Pb89  1  0.99168743  0.49458324  0.99999883  1
  Pb  Pb90  1  0.51096317  0.98031919  0.99916492  1
  Pb  Pb91  1  0.50575208  0.50046598  0.99888762  1
  C  C92  1  0.24042288  0.25492770  0.80341843  1
  C  C93  1  0.26257264  0.22958571  0.72345617  1
  C  C94  1  0.16652766  0.26472081  0.67626744  1
  C  C95  1  0.18139595  0.24205776  0.59594741  1
  C  C96  1  0.18457408  0.13297145  0.57023764  1
  C  C97  1  0.19382463  0.10997986  0.49690080  1
  C  C98  1  0.19932095  0.19501621  0.44439745  1
  C  C99  1  0.20297357  0.17442935  0.36820458  1
  C  C100  1  0.20475522  0.25880610  0.31808920  1
  C  C101  1  0.21142701  0.23747207  0.23713854  1
  C  C102  1  0.32840801  0.24222116  0.21315028  1
  C  C103  1  0.20558939  0.36783676  0.34362606  1
  C  C104  1  0.20284027  0.39074586  0.41722142  1
  C  C105  1  0.19850888  0.30549593  0.46963956  1
  C  C106  1  0.19007630  0.32589411  0.54574064  1
  C  C107  1  0.25846897  0.75783699  0.80310726  1
  C  C108  1  0.23216562  0.73669977  0.72334080  1
  C  C109  1  0.26506881  0.83418790  0.67597445  1
  C  C110  1  0.24209434  0.81924463  0.59581852  1
  C  C111  1  0.13445101  0.81557895  0.57046968  1
  C  C112  1  0.11145703  0.80577150  0.49719823  1
  C  C113  1  0.19498853  0.79997245  0.44445364  1
  C  C114  1  0.17477460  0.79634111  0.36820259  1
  C  C115  1  0.25789798  0.79464771  0.31812677  1
  C  C116  1  0.23753837  0.78894345  0.23711630  1
  C  C117  1  0.24570910  0.67093447  0.21207446  1
  C  C118  1  0.36524390  0.79374584  0.34365878  1
  C  C119  1  0.38785226  0.79653455  0.41718325  1
  C  C120  1  0.30389267  0.80118328  0.46951250  1
  C  C121  1  0.32442543  0.81040224  0.54543934  1
  C  C122  1  0.74304515  0.26187417  0.19710856  1
  C  C123  1  0.76956935  0.23937704  0.27678396  1
  C  C124  1  0.73578035  0.33672663  0.32422835  1
  C  C125  1  0.75846183  0.32035481  0.40433241  1
  C  C126  1  0.86602433  0.31541776  0.42998189  1
  C  C127  1  0.88828410  0.30466497  0.50329158  1
  C  C128  1  0.80429930  0.29931589  0.55563518  1
  C  C129  1  0.82402148  0.29624858  0.63188405  1
  C  C130  1  0.74071746  0.29551126  0.68180368  1
  C  C131  1  0.76158213  0.29191216  0.76278918  1
  C  C132  1  0.75663473  0.17462438  0.78965228  1
  C  C133  1  0.63336249  0.29435685  0.65614652  1
  C  C134  1  0.61131908  0.29651589  0.58249524  1
  C  C135  1  0.69551371  0.30080381  0.53028578  1
  C  C136  1  0.67573796  0.31097380  0.45427973  1
  C  C137  1  0.74083788  0.74134768  0.19633032  1
  C  C138  1  0.76421428  0.76696550  0.27591840  1
  C  C139  1  0.66917541  0.73319052  0.32386466  1
  C  C140  1  0.68401346  0.75616688  0.40399035  1
  C  C141  1  0.68682703  0.86545994  0.42940084  1
  C  C142  1  0.69473307  0.88852576  0.50279427  1
  C  C143  1  0.69960700  0.80348088  0.55541572  1
  C  C144  1  0.70213839  0.82375700  0.63161516  1
  C  C145  1  0.70378053  0.73922726  0.68160995  1
  C  C146  1  0.70918965  0.76083380  0.76240328  1
  C  C147  1  0.82582154  0.75601614  0.78673427  1
  C  C148  1  0.70571630  0.63015934  0.65622724  1
  C  C149  1  0.70388452  0.60752456  0.58264362  1
  C  C150  1  0.69946427  0.69291096  0.53033611  1
  C  C151  1  0.69194710  0.67238460  0.45430614  1
  I  I152  1  0.26518925  0.05636510  0.99623984  1
  I  I153  1  0.24402142  0.42847168  0.00702846  1
  I  I154  1  0.76420094  0.95027363  0.00346409  1
  I  I155  1  0.74489395  0.58260189  0.99630946  1
  I  I156  1  0.93358982  0.25200530  0.01215881  1
  I  I157  1  0.05633561  0.75195023  0.99337814  1
  I  I158  1  0.56632179  0.24253106  0.99741753  1
  I  I159  1  0.41252474  0.74342493  0.99601736  1
  I  I160  1  0.01544287  0.00533938  0.82602140  1
  I  I161  1  0.99787426  0.99844632  0.17825904  1
  I  I162  1  0.00507189  0.49913546  0.82544333  1
  I  I163  1  0.98086855  0.51962040  0.17682778  1
  I  I164  1  0.49942675  0.99398774  0.82510869  1
  I  I165  1  0.53142872  0.00070103  0.17657205  1
  I  I166  1  0.46437957  0.48403197  0.81866266  1
  I  I167  1  0.50467022  0.49517167  0.16903443  1
  N  N168  1  0.33688067  0.23214290  0.84964218  1
  N  N169  1  0.33887018  0.22960076  0.13239461  1
  N  N170  1  0.23733581  0.65965382  0.84922737  1
  N  N171  1  0.23002465  0.66265922  0.13147870  1
  N  N172  1  0.76415620  0.16365242  0.15109463  1
  N  N173  1  0.77231158  0.16941074  0.87039477  1
  N  N174  1  0.83604625  0.76383957  0.14905033  1
  N  N175  1  0.83415726  0.77088187  0.86724128  1
