# generated using pymatgen
data_H16PbC13S(IN)4
_symmetry_space_group_name_H-M   'P 1'
_cell_length_a   12.56803137
_cell_length_b   12.53956636
_cell_length_c   18.47762814
_cell_angle_alpha   89.46748742
_cell_angle_beta   91.60117510
_cell_angle_gamma   89.76749970
_symmetry_Int_Tables_number   1
_chemical_formula_structural   H16PbC13S(IN)4
_chemical_formula_sum   'H64 Pb4 C52 S4 I16 N16'
_cell_volume   2910.74111919
_cell_formula_units_Z   4
loop_
 _symmetry_equiv_pos_site_id
 _symmetry_equiv_pos_as_xyz
  1  'x, y, z'
loop_
 _atom_site_type_symbol
 _atom_site_label
 _atom_site_symmetry_multiplicity
 _atom_site_fract_x
 _atom_site_fract_y
 _atom_site_fract_z
 _atom_site_occupancy
  H  H0  1  0.22256186  0.35196537  0.89657307  1
  H  H1  1  0.13673195  0.36514727  0.82744943  1
  H  H2  1  0.18537504  0.24412972  0.85093293  1
  H  H3  1  0.36724089  0.31051443  0.82558987  1
  H  H4  1  0.30607536  0.42792318  0.79113761  1
  H  H5  1  0.31704604  0.13354679  0.76978821  1
  H  H6  1  0.30838946  0.03830832  0.65231748  1
  H  H7  1  0.19334942  0.06697335  0.39353647  1
  H  H8  1  0.15905222  0.10269002  0.25272752  1
  H  H9  1  0.11759543  0.26542783  0.16987040  1
  H  H10  1  0.14213060  0.39609735  0.20312156  1
  H  H11  1  0.30125752  0.25416917  0.13589384  1
  H  H12  1  0.33025636  0.37273904  0.17248528  1
  H  H13  1  0.24293759  0.36181638  0.10196974  1
  H  H14  1  0.22332391  0.40293149  0.50628528  1
  H  H15  1  0.25565495  0.43777730  0.66347861  1
  H  H16  1  0.35485672  0.77444234  0.89833743  1
  H  H17  1  0.36508142  0.86032647  0.82979651  1
  H  H18  1  0.24589775  0.80931293  0.85064636  1
  H  H19  1  0.31674915  0.62860030  0.82568256  1
  H  H20  1  0.43241352  0.69141727  0.79422603  1
  H  H21  1  0.13790489  0.67867055  0.76614036  1
  H  H22  1  0.04143206  0.69029644  0.64704493  1
  H  H23  1  0.06747891  0.81059627  0.39018352  1
  H  H24  1  0.10146029  0.84407329  0.25062610  1
  H  H25  1  0.26325519  0.88100948  0.17031169  1
  H  H26  1  0.39391222  0.85030503  0.20343547  1
  H  H27  1  0.23901776  0.68867507  0.14658710  1
  H  H28  1  0.36737314  0.66700054  0.16993050  1
  H  H29  1  0.33509969  0.74944462  0.09976400  1
  H  H30  1  0.40316394  0.77585372  0.50956998  1
  H  H31  1  0.43986090  0.74149577  0.66690401  1
  H  H32  1  0.63161155  0.26285593  0.10329352  1
  H  H33  1  0.63858053  0.34717749  0.17287598  1
  H  H34  1  0.74975075  0.29368821  0.13937142  1
  H  H35  1  0.69782819  0.11686148  0.17535653  1
  H  H36  1  0.57646987  0.16893030  0.20669347  1
  H  H37  1  0.87169755  0.17540744  0.23494749  1
  H  H38  1  0.96603935  0.20405341  0.35347857  1
  H  H39  1  0.92936240  0.30557035  0.61273469  1
  H  H40  1  0.88844094  0.32472537  0.75226295  1
  H  H41  1  0.71338140  0.36310586  0.82577495  1
  H  H42  1  0.59008553  0.32128738  0.78890857  1
  H  H43  1  0.75133525  0.17594845  0.85928424  1
  H  H44  1  0.63011775  0.13975181  0.82684085  1
  H  H45  1  0.64300866  0.22469436  0.89505069  1
  H  H46  1  0.59541323  0.25388330  0.48797415  1
  H  H47  1  0.56491582  0.22471799  0.33089069  1
  H  H48  1  0.73318833  0.65493006  0.10232424  1
  H  H49  1  0.65198969  0.63655419  0.17186026  1
  H  H50  1  0.69064757  0.76008382  0.15030446  1
  H  H51  1  0.87838216  0.70371770  0.17547950  1
  H  H52  1  0.82848032  0.58076024  0.20765939  1
  H  H53  1  0.82782593  0.87452901  0.23457049  1
  H  H54  1  0.80182375  0.96650026  0.35152456  1
  H  H55  1  0.69529668  0.92645284  0.60872544  1
  H  H56  1  0.67076840  0.88366428  0.74819889  1
  H  H57  1  0.62837408  0.70661611  0.82495947  1
  H  H58  1  0.67258587  0.58303700  0.79227083  1
  H  H59  1  0.81339590  0.74833499  0.85938626  1
  H  H60  1  0.85320332  0.62781446  0.83065018  1
  H  H61  1  0.76807801  0.63945614  0.89802941  1
  H  H62  1  0.74253117  0.59300048  0.48976094  1
  H  H63  1  0.77217255  0.56586577  0.33324848  1
  Pb  Pb64  1  0.99008456  0.99738661  0.99242828  1
  Pb  Pb65  1  0.01196033  0.51393194  0.00389698  1
  Pb  Pb66  1  0.51769266  0.98251058  0.00446506  1
  Pb  Pb67  1  0.49893103  0.49779411  0.02121622  1
  C  C68  1  0.29684067  0.34139338  0.79575289  1
  C  C69  1  0.28454239  0.28968274  0.72331956  1
  C  C70  1  0.29943796  0.17809752  0.71984048  1
  C  C71  1  0.29608312  0.12423466  0.65466556  1
  C  C72  1  0.27702679  0.18426458  0.59130120  1
  C  C73  1  0.24958906  0.23812441  0.48143003  1
  C  C74  1  0.22988362  0.23511459  0.40400463  1
  C  C75  1  0.20315776  0.14340225  0.36630889  1
  C  C76  1  0.18661528  0.16231060  0.29158117  1
  C  C77  1  0.20076234  0.26770399  0.27180415  1
  C  C78  1  0.17537361  0.31517483  0.19961226  1
  C  C79  1  0.26202253  0.29677144  0.59503420  1
  C  C80  1  0.26574876  0.35137896  0.66055531  1
  C  C81  1  0.34584167  0.69914846  0.79685364  1
  C  C82  1  0.29330288  0.71099476  0.72340122  1
  C  C83  1  0.18191047  0.69656617  0.71740472  1
  C  C84  1  0.12729820  0.70159701  0.65115545  1
  C  C85  1  0.18621189  0.72146613  0.58921049  1
  C  C86  1  0.23865128  0.75071862  0.48083668  1
  C  C87  1  0.23521346  0.77158885  0.40363816  1
  C  C88  1  0.14361426  0.80048787  0.36448052  1
  C  C89  1  0.16173501  0.81721701  0.29039877  1
  C  C90  1  0.26639611  0.80100153  0.27232764  1
  C  C91  1  0.31167798  0.82115221  0.20006992  1
  C  C92  1  0.29851812  0.73587212  0.59550224  1
  C  C93  1  0.35374134  0.73094509  0.66208932  1
  C  C94  1  0.66185932  0.18451384  0.20303947  1
  C  C95  1  0.71391394  0.20307063  0.27573352  1
  C  C96  1  0.82624481  0.19674350  0.28234695  1
  C  C97  1  0.87969103  0.21108346  0.34830999  1
  C  C98  1  0.81870743  0.23056848  0.40923383  1
  C  C99  1  0.76237998  0.25447608  0.51684120  1
  C  C100  1  0.76244597  0.26957115  0.59428335  1
  C  C101  1  0.85203728  0.29385252  0.63637911  1
  C  C102  1  0.83027871  0.30215841  0.71041046  1
  C  C103  1  0.72497611  0.28356379  0.72522030  1
  C  C104  1  0.67396757  0.29865183  0.79566799  1
  C  C105  1  0.70555296  0.23388355  0.40240188  1
  C  C106  1  0.65159985  0.22172843  0.33605607  1
  C  C107  1  0.81238023  0.66662121  0.20389528  1
  C  C108  1  0.79788254  0.71601978  0.27672607  1
  C  C109  1  0.80763759  0.82808985  0.28250002  1
  C  C110  1  0.79431679  0.88017988  0.34756248  1
  C  C111  1  0.77275175  0.81800074  0.40882745  1
  C  C112  1  0.74527523  0.75945339  0.51659789  1
  C  C113  1  0.72796483  0.75842593  0.59372462  1
  C  C114  1  0.70426254  0.84806598  0.63381098  1
  C  C115  1  0.69296459  0.82518463  0.70795876  1
  C  C116  1  0.70859459  0.71880256  0.72507321  1
  C  C117  1  0.69331297  0.66747862  0.79661773  1
  C  C118  1  0.76684970  0.70496115  0.40322845  1
  C  C119  1  0.77775111  0.65244052  0.33753294  1
  S  S120  1  0.23512360  0.34447395  0.34646273  1
  S  S121  1  0.34349886  0.76449747  0.34790410  1
  S  S122  1  0.65168213  0.25576291  0.64703320  1
  S  S123  1  0.73782293  0.64618807  0.64880381  1
  I  I124  1  0.27173179  0.93308241  0.00817443  1
  I  I125  1  0.25737334  0.56377294  0.97917133  1
  I  I126  1  0.75985758  0.09627966  0.00798793  1
  I  I127  1  0.75676518  0.45896809  0.02050321  1
  I  I128  1  0.07650561  0.27118393  0.00781699  1
  I  I129  1  0.90521650  0.76262779  0.00536971  1
  I  I130  1  0.45338853  0.24461376  0.02009962  1
  I  I131  1  0.55931192  0.74087834  0.97712920  1
  I  I132  1  -0.00122123  0.00996068  0.82161026  1
  I  I133  1  0.00469469  0.00899660  0.16289410  1
  I  I134  1  0.99703532  0.50340558  0.82148544  1
  I  I135  1  0.07737169  0.58223270  0.16357754  1
  I  I136  1  0.50242023  0.99781782  0.82022043  1
  I  I137  1  0.57784289  0.92106820  0.16499564  1
  I  I138  1  0.51070919  0.48326991  0.86138170  1
  I  I139  1  0.49544737  0.49826585  0.20982557  1
  N  N140  1  0.20510532  0.32333150  0.84514113  1
  N  N141  1  0.26995744  0.15073767  0.52055552  1
  N  N142  1  0.26908146  0.32647486  0.15031874  1
  N  N143  1  0.24576476  0.32902357  0.52361884  1
  N  N144  1  0.32542616  0.79133827  0.84643978  1
  N  N145  1  0.15193131  0.73006655  0.51788209  1
  N  N146  1  0.31407225  0.72505600  0.15115767  1
  N  N147  1  0.32976286  0.75330609  0.52505642  1
  N  N148  1  0.67203166  0.27836463  0.15207714  1
  N  N149  1  0.85126561  0.24437626  0.48035100  1
  N  N150  1  0.67584495  0.20407617  0.84629889  1
  N  N151  1  0.67191361  0.24944300  0.47223449  1
  N  N152  1  0.71608702  0.68041504  0.15393017  1
  N  N153  1  0.75822628  0.84914250  0.47925613  1
  N  N154  1  0.78769735  0.67198877  0.84840404  1
  N  N155  1  0.74943200  0.66987454  0.47322993  1
