# generated using pymatgen
data_H20PbC13S(I2N)2
_symmetry_space_group_name_H-M   'P 1'
_cell_length_a   12.45122414
_cell_length_b   12.30747370
_cell_length_c   18.46474986
_cell_angle_alpha   90.67220643
_cell_angle_beta   91.39624287
_cell_angle_gamma   90.29106812
_symmetry_Int_Tables_number   1
_chemical_formula_structural   H20PbC13S(I2N)2
_chemical_formula_sum   'H80 Pb4 C52 S4 I16 N8'
_cell_volume   2828.52019401
_cell_formula_units_Z   4
loop_
 _symmetry_equiv_pos_site_id
 _symmetry_equiv_pos_as_xyz
  1  'x, y, z'
loop_
 _atom_site_type_symbol
 _atom_site_label
 _atom_site_symmetry_multiplicity
 _atom_site_fract_x
 _atom_site_fract_y
 _atom_site_fract_z
 _atom_site_occupancy
  H  H0  1  0.34971444  0.37191809  0.84530321  1
  H  H1  1  0.26250897  0.31810955  0.90399191  1
  H  H2  1  0.33461920  0.23638969  0.85025711  1
  H  H3  1  0.16130691  0.39053184  0.80557623  1
  H  H4  1  0.14974144  0.24735451  0.80746875  1
  H  H5  1  0.29406955  0.23323965  0.71252927  1
  H  H6  1  0.30127948  0.37682816  0.70950760  1
  H  H7  1  0.10553817  0.38311818  0.67088638  1
  H  H8  1  0.09722793  0.24070990  0.67751573  1
  H  H9  1  0.19040556  0.11790115  0.57723581  1
  H  H10  1  0.26134101  0.04384755  0.44185748  1
  H  H11  1  0.32196434  0.09995225  0.32045565  1
  H  H12  1  0.37445501  0.38413956  0.26606367  1
  H  H13  1  0.39976271  0.24546581  0.24584644  1
  H  H14  1  0.20399752  0.21627657  0.21366586  1
  H  H15  1  0.17756389  0.35454956  0.23529601  1
  H  H16  1  0.32434444  0.28099230  0.11882965  1
  H  H17  1  0.19944628  0.32376020  0.10596789  1
  H  H18  1  0.29713368  0.40801720  0.13958694  1
  H  H19  1  0.29018503  0.43861920  0.37950595  1
  H  H20  1  0.38381252  0.65558632  0.84209524  1
  H  H21  1  0.33849383  0.74825633  0.90316925  1
  H  H22  1  0.25282107  0.67364839  0.85502480  1
  H  H23  1  0.40000324  0.84601524  0.80342568  1
  H  H24  1  0.25908176  0.85728021  0.80976930  1
  H  H25  1  0.23639427  0.70917265  0.71272833  1
  H  H26  1  0.37803935  0.70098801  0.70696324  1
  H  H27  1  0.38458380  0.89919550  0.67291145  1
  H  H28  1  0.24389908  0.90677247  0.68022159  1
  H  H29  1  0.11990518  0.81146215  0.57809475  1
  H  H30  1  0.04393557  0.73938385  0.44097231  1
  H  H31  1  0.09683970  0.67994518  0.31754785  1
  H  H32  1  0.37691318  0.62918633  0.26306507  1
  H  H33  1  0.23982502  0.60064829  0.24199155  1
  H  H34  1  0.21077744  0.79978901  0.21369389  1
  H  H35  1  0.34944202  0.82517336  0.23320363  1
  H  H36  1  0.26460986  0.67813129  0.11536843  1
  H  H37  1  0.31653033  0.80096862  0.10462818  1
  H  H38  1  0.39262660  0.69661090  0.13666234  1
  H  H39  1  0.43251888  0.71118285  0.37829863  1
  H  H40  1  0.62756151  0.13772085  0.15941999  1
  H  H41  1  0.67714285  0.22379073  0.09886163  1
  H  H42  1  0.76054953  0.15465979  0.15325167  1
  H  H43  1  0.60734241  0.33047053  0.19294205  1
  H  H44  1  0.74897282  0.34392598  0.19269926  1
  H  H45  1  0.76300506  0.20192260  0.29174797  1
  H  H46  1  0.62095342  0.19445747  0.29312812  1
  H  H47  1  0.61277585  0.39175682  0.32839607  1
  H  H48  1  0.75389305  0.40275373  0.32207884  1
  H  H49  1  0.87793430  0.31191584  0.42318573  1
  H  H50  1  0.95489022  0.24120826  0.55909790  1
  H  H51  1  0.90259642  0.17801983  0.68128679  1
  H  H52  1  0.62488442  0.11687186  0.73520188  1
  H  H53  1  0.76356725  0.09749701  0.75623380  1
  H  H54  1  0.78348102  0.29570870  0.78863038  1
  H  H55  1  0.64551907  0.31653859  0.76568119  1
  H  H56  1  0.72484489  0.17055941  0.88401128  1
  H  H57  1  0.67440578  0.29382377  0.89479807  1
  H  H58  1  0.59737483  0.19108241  0.85954716  1
  H  H59  1  0.56685613  0.20703394  0.62255616  1
  H  H60  1  0.86843988  0.63454542  0.16159411  1
  H  H61  1  0.78293436  0.68190651  0.09843012  1
  H  H62  1  0.84733142  0.76978034  0.15367035  1
  H  H63  1  0.67861822  0.60755746  0.19088983  1
  H  H64  1  0.66162946  0.75017688  0.18837197  1
  H  H65  1  0.80136509  0.76902765  0.29165421  1
  H  H66  1  0.80875519  0.62532068  0.29531305  1
  H  H67  1  0.61164667  0.61580338  0.32211250  1
  H  H68  1  0.60243539  0.75839416  0.31424001  1
  H  H69  1  0.68727414  0.88374209  0.41984127  1
  H  H70  1  0.75548855  0.96032624  0.55824319  1
  H  H71  1  0.81980644  0.90592434  0.68092632  1
  H  H72  1  0.88050628  0.62396332  0.73570375  1
  H  H73  1  0.90275432  0.76388430  0.75622660  1
  H  H74  1  0.70960378  0.78414309  0.78908635  1
  H  H75  1  0.68552830  0.64475637  0.76642663  1
  H  H76  1  0.83740391  0.72394575  0.88400089  1
  H  H77  1  0.71697188  0.66930525  0.89477433  1
  H  H78  1  0.81883014  0.59522059  0.85880124  1
  H  H79  1  0.78952954  0.56654457  0.62210283  1
  Pb  Pb80  1  0.98905176  -0.00292199  0.99678182  1
  Pb  Pb81  1  0.99490626  0.47519156  0.00361653  1
  Pb  Pb82  1  0.48241824  0.99707006  0.00035039  1
  Pb  Pb83  1  0.50730088  0.50372959  0.98771366  1
  C  C84  1  0.20506769  0.31466193  0.79634060  1
  C  C85  1  0.24706748  0.30795451  0.71972589  1
  C  C86  1  0.15209064  0.30788605  0.66462918  1
  C  C87  1  0.18671890  0.29308025  0.58796460  1
  C  C88  1  0.20411261  0.19664841  0.55254707  1
  C  C89  1  0.24126520  0.20955616  0.48035221  1
  C  C90  1  0.26759427  0.12977227  0.42855070  1
  C  C91  1  0.30125061  0.16137185  0.36088980  1
  C  C92  1  0.30944347  0.27216362  0.34261366  1
  C  C93  1  0.33917703  0.30208174  0.26673789  1
  C  C94  1  0.23942717  0.29808949  0.21687582  1
  C  C95  1  0.28431719  0.35272796  0.39327450  1
  C  C96  1  0.25094059  0.32113394  0.46181189  1
  C  C97  1  0.32408199  0.80118274  0.79605034  1
  C  C98  1  0.31152765  0.75633414  0.71934166  1
  C  C99  1  0.30977983  0.85169662  0.66596014  1
  C  C100  1  0.29331443  0.81570206  0.58875760  1
  C  C101  1  0.19716324  0.79780443  0.55305206  1
  C  C102  1  0.20843724  0.76032264  0.47999645  1
  C  C103  1  0.12850787  0.73383426  0.42738540  1
  C  C104  1  0.15818543  0.70097909  0.35869021  1
  C  C105  1  0.26731835  0.69344692  0.34029186  1
  C  C106  1  0.29567223  0.66341769  0.26389201  1
  C  C107  1  0.29086692  0.76296243  0.21519790  1
  C  C108  1  0.34796184  0.71766881  0.39195349  1
  C  C109  1  0.31835216  0.75073912  0.46140919  1
  C  C110  1  0.68294448  0.28780019  0.20462404  1
  C  C111  1  0.68908064  0.24893360  0.28240544  1
  C  C112  1  0.68834541  0.34645439  0.33554056  1
  C  C113  1  0.70459069  0.31287112  0.41278857  1
  C  C114  1  0.80091082  0.29719402  0.44823825  1
  C  C115  1  0.79017271  0.26037372  0.52095702  1
  C  C116  1  0.87040683  0.23440007  0.57289683  1
  C  C117  1  0.84108029  0.19933772  0.64080034  1
  C  C118  1  0.73208955  0.18933958  0.65936348  1
  C  C119  1  0.70436862  0.15619189  0.73507995  1
  C  C120  1  0.70420504  0.25639647  0.78472986  1
  C  C121  1  0.65127233  0.21461539  0.60858436  1
  C  C122  1  0.68042215  0.24929029  0.53975619  1
  C  C123  1  0.71874648  0.68556300  0.20254159  1
  C  C124  1  0.75532753  0.69355105  0.28163754  1
  C  C125  1  0.65682630  0.69230464  0.33083616  1
  C  C126  1  0.68622204  0.70849123  0.40950362  1
  C  C127  1  0.70071876  0.80550945  0.44550167  1
  C  C128  1  0.73626888  0.79392822  0.51933335  1
  C  C129  1  0.76208719  0.87453561  0.57180545  1
  C  C130  1  0.79745170  0.84396533  0.64037256  1
  C  C131  1  0.80741218  0.73343952  0.65913198  1
  C  C132  1  0.84285083  0.70456334  0.73506080  1
  C  C133  1  0.74690283  0.70374391  0.78510354  1
  C  C134  1  0.78169897  0.65216752  0.60805867  1
  C  C135  1  0.74720527  0.68272382  0.53851239  1
  S  S136  1  0.21497393  0.40458296  0.53381601  1
  S  S137  1  0.40248590  0.78690548  0.53430146  1
  S  S138  1  0.59584246  0.28353734  0.46728619  1
  S  S139  1  0.71408252  0.59803056  0.46521323  1
  I  I140  1  0.25089192  0.90261397  0.99351946  1
  I  I141  1  0.25010800  0.54409550  0.98914542  1
  I  I142  1  0.74238687  0.04365725  0.99054535  1
  I  I143  1  0.74579527  0.41653388  0.01697244  1
  I  I144  1  0.10108167  0.23800316  0.99631212  1
  I  I145  1  0.96371333  0.73501303  0.99687324  1
  I  I146  1  0.45756132  0.24777417  0.01967429  1
  I  I147  1  0.58473586  0.74554145  0.99032315  1
  I  I148  1  0.98624613  0.99556618  0.82494816  1
  I  I149  1  0.94146626  0.97825176  0.17148593  1
  I  I150  1  0.94941527  0.45133055  0.83488925  1
  I  I151  1  0.00697970  0.49570883  0.18143734  1
  I  I152  1  0.43966712  0.07108682  0.82911237  1
  I  I153  1  0.49172438  0.99161488  0.17408146  1
  I  I154  1  0.50113582  0.49981722  0.80896588  1
  I  I155  1  0.48776835  0.51393919  0.15569917  1
  N  N156  1  0.29325975  0.31039784  0.85259888  1
  N  N157  1  0.26567732  0.32998113  0.14145425  1
  N  N158  1  0.32499357  0.71434658  0.85195972  1
  N  N159  1  0.31787329  0.73383632  0.13872557  1
  N  N160  1  0.68815645  0.19578326  0.15115611  1
  N  N161  1  0.67379566  0.22730879  0.85999943  1
  N  N162  1  0.80952222  0.69392681  0.15134468  1
  N  N163  1  0.78101482  0.67139240  0.85989226  1
