# generated using pymatgen
data_H8PbC4(IN)4
_symmetry_space_group_name_H-M   'P 1'
_cell_length_a   12.21304518
_cell_length_b   12.24342385
_cell_length_c   10.38918858
_cell_angle_alpha   91.06341935
_cell_angle_beta   91.11654076
_cell_angle_gamma   88.31582277
_symmetry_Int_Tables_number   1
_chemical_formula_structural   H8PbC4(IN)4
_chemical_formula_sum   'H32 Pb4 C16 I16 N16'
_cell_volume   1552.27267299
_cell_formula_units_Z   4
loop_
 _symmetry_equiv_pos_site_id
 _symmetry_equiv_pos_as_xyz
  1  'x, y, z'
loop_
 _atom_site_type_symbol
 _atom_site_label
 _atom_site_symmetry_multiplicity
 _atom_site_fract_x
 _atom_site_fract_y
 _atom_site_fract_z
 _atom_site_occupancy
  H  H0  1  0.20084989  0.14501915  0.79944367  1
  H  H1  1  0.16520410  0.25882020  0.72142573  1
  H  H2  1  0.29602104  0.23344525  0.76431506  1
  H  H3  1  0.31588476  0.08387249  0.61546811  1
  H  H4  1  0.17015760  0.08173841  0.59221227  1
  H  H5  1  0.25089420  0.46967207  0.42501375  1
  H  H6  1  0.26465888  0.37849117  0.19891505  1
  H  H7  1  0.26726062  0.18689060  0.19201300  1
  H  H8  1  0.12877243  0.73443388  0.78896853  1
  H  H9  1  0.23334474  0.80318253  0.73557243  1
  H  H10  1  0.23450060  0.66724926  0.72416880  1
  H  H11  1  0.07402030  0.67122723  0.57939239  1
  H  H12  1  0.07215982  0.81746950  0.59232128  1
  H  H13  1  0.46351591  0.75639524  0.41517809  1
  H  H14  1  0.37562231  0.75865706  0.18674758  1
  H  H15  1  0.18363671  0.75318287  0.17557451  1
  H  H16  1  0.85920590  0.27103894  0.20220573  1
  H  H17  1  0.75396375  0.33119622  0.27642641  1
  H  H18  1  0.76064378  0.19553014  0.25718900  1
  H  H19  1  0.92397899  0.18058880  0.39423300  1
  H  H20  1  0.92259008  0.32671484  0.40996054  1
  H  H21  1  0.53805475  0.24280071  0.58725277  1
  H  H22  1  0.63123570  0.24053800  0.81253809  1
  H  H23  1  0.82448762  0.24248222  0.81693250  1
  H  H24  1  0.79119551  0.84573054  0.18929648  1
  H  H25  1  0.69740441  0.76034882  0.23362582  1
  H  H26  1  0.82928653  0.73392752  0.27128315  1
  H  H27  1  0.83258754  0.91262425  0.39480015  1
  H  H28  1  0.68635603  0.91657706  0.37540709  1
  H  H29  1  0.74630542  0.53303630  0.57745324  1
  H  H30  1  0.73436739  0.62941379  0.80036010  1
  H  H31  1  0.73007385  0.82215475  0.80027087  1
  Pb  Pb32  1  0.01142754  -0.00076996  0.01556063  1
  Pb  Pb33  1  0.00380007  0.50610986  0.01054612  1
  Pb  Pb34  1  0.50165264  0.00949068  0.01475535  1
  Pb  Pb35  1  0.50802055  0.50163765  0.01370649  1
  C  C36  1  0.24053536  0.13560623  0.60556866  1
  C  C37  1  0.24784490  0.21004852  0.49377179  1
  C  C38  1  0.25207278  0.38142785  0.41202732  1
  C  C39  1  0.25991004  0.33409450  0.28844005  1
  C  C40  1  0.12590864  0.74333936  0.58894770  1
  C  C41  1  0.20263096  0.74781548  0.47878510  1
  C  C42  1  0.37534312  0.75441074  0.40048829  1
  C  C43  1  0.32963675  0.75616272  0.27546110  1
  C  C44  1  0.87042125  0.25479336  0.40155207  1
  C  C45  1  0.79736158  0.24914305  0.51496644  1
  C  C46  1  0.62657324  0.24405328  0.59886445  1
  C  C47  1  0.67547488  0.24175683  0.72265820  1
  C  C48  1  0.75957211  0.86176987  0.38519992  1
  C  C49  1  0.75069253  0.79079462  0.49990318  1
  C  C50  1  0.74582052  0.62152079  0.58731836  1
  C  C51  1  0.73872246  0.67202180  0.70966436  1
  I  I52  1  0.25796708  0.92507926  0.97064816  1
  I  I53  1  0.25286942  0.57308952  0.99071869  1
  I  I54  1  0.75443041  0.06090202  0.04212330  1
  I  I55  1  0.75650382  0.42294349  0.00653553  1
  I  I56  1  0.06281547  0.25018430  0.02296757  1
  I  I57  1  0.93442162  0.75364319  0.98054200  1
  I  I58  1  0.41527217  0.25602826  0.98536742  1
  I  I59  1  0.57613050  0.75178421  0.01671657  1
  I  I60  1  0.98716959  0.00342090  0.71217541  1
  I  I61  1  0.02726782  0.99498737  0.32121365  1
  I  I62  1  0.99456383  0.48847373  0.70361087  1
  I  I63  1  0.99448952  0.52367261  0.31601943  1
  I  I64  1  0.51500734  0.00352790  0.70978793  1
  I  I65  1  0.48714996  0.00663430  0.31944255  1
  I  I66  1  0.51214579  0.49511806  0.70506756  1
  I  I67  1  0.50235173  0.49771697  0.31972121  1
  N  N68  1  0.22497280  0.19756683  0.72907338  1
  N  N69  1  0.24616266  0.31886413  0.51545748  1
  N  N70  1  0.26070238  0.22536422  0.28074229  1
  N  N71  1  0.25492900  0.15845185  0.37948617  1
  N  N72  1  0.18487841  0.73666381  0.71557149  1
  N  N73  1  0.31120660  0.75011071  0.50297817  1
  N  N74  1  0.22097478  0.75331896  0.26536163  1
  N  N75  1  0.15253343  0.74945505  0.36313737  1
  N  N76  1  0.80669610  0.26369757  0.27853834  1
  N  N77  1  0.68790149  0.24748919  0.49434315  1
  N  N78  1  0.78427215  0.24266841  0.72894879  1
  N  N79  1  0.85026952  0.24650118  0.62828305  1
  N  N80  1  0.77011942  0.79591613  0.26396180  1
  N  N81  1  0.75082138  0.68128980  0.48176056  1
  N  N82  1  0.73735931  0.78078438  0.71352521  1
  N  N83  1  0.74383300  0.84512308  0.61202253  1
