# generated using pymatgen
data_H8PbC4(IN)4
_symmetry_space_group_name_H-M   'P 1'
_cell_length_a   12.25726799
_cell_length_b   12.18955714
_cell_length_c   10.69259005
_cell_angle_alpha   94.20579106
_cell_angle_beta   93.42887325
_cell_angle_gamma   92.20004540
_symmetry_Int_Tables_number   1
_chemical_formula_structural   H8PbC4(IN)4
_chemical_formula_sum   'H32 Pb4 C16 I16 N16'
_cell_volume   1588.96375913
_cell_formula_units_Z   4
loop_
 _symmetry_equiv_pos_site_id
 _symmetry_equiv_pos_as_xyz
  1  'x, y, z'
loop_
 _atom_site_type_symbol
 _atom_site_label
 _atom_site_symmetry_multiplicity
 _atom_site_fract_x
 _atom_site_fract_y
 _atom_site_fract_z
 _atom_site_occupancy
  H  H0  1  0.26195303  0.18985859  0.80822098  1
  H  H1  1  0.33001095  0.28482235  0.72926550  1
  H  H2  1  0.19586370  0.28324522  0.72814504  1
  H  H3  1  0.17875905  0.09850953  0.61513256  1
  H  H4  1  0.32447311  0.09759139  0.62121296  1
  H  H5  1  0.26594073  0.06692997  0.35791764  1
  H  H6  1  0.26729391  0.18085281  0.18892424  1
  H  H7  1  0.25750885  0.46332438  0.40994364  1
  H  H8  1  0.18327243  0.73957677  0.81003309  1
  H  H9  1  0.26804999  0.66335963  0.72544028  1
  H  H10  1  0.28472104  0.79798936  0.73418482  1
  H  H11  1  0.09694421  0.81181612  0.63013243  1
  H  H12  1  0.09188353  0.66503115  0.60967875  1
  H  H13  1  0.06770316  0.75608617  0.36070294  1
  H  H14  1  0.18370634  0.75808119  0.19252757  1
  H  H15  1  0.46131556  0.75314401  0.41526833  1
  H  H16  1  0.81676505  0.26041999  0.18996046  1
  H  H17  1  0.71531354  0.20201442  0.26580649  1
  H  H18  1  0.73198643  0.33664079  0.27454558  1
  H  H19  1  0.90814713  0.33496838  0.39032291  1
  H  H20  1  0.90308389  0.18818187  0.36987135  1
  H  H21  1  0.93229965  0.24390697  0.63930386  1
  H  H22  1  0.81627681  0.24191362  0.80745985  1
  H  H23  1  0.53869019  0.24685653  0.58468106  1
  H  H24  1  0.73806030  0.81011955  0.19175318  1
  H  H25  1  0.80413477  0.71673553  0.27184438  1
  H  H26  1  0.66998944  0.71516813  0.27070589  1
  H  H27  1  0.67552236  0.90240281  0.37875114  1
  H  H28  1  0.82123697  0.90148361  0.38483527  1
  H  H29  1  0.73399607  0.93308305  0.64203594  1
  H  H30  1  0.73267013  0.81917543  0.81104463  1
  H  H31  1  0.74254659  0.53669316  0.59006832  1
  Pb  Pb32  1  0.99996040  0.00004301  0.00000342  1
  Pb  Pb33  1  0.99998106  0.49998326  0.00002694  1
  Pb  Pb34  1  0.50007015  0.00001940  0.00010909  1
  Pb  Pb35  1  0.49988608  0.49997169  -0.00002149  1
  C  C36  1  0.25382393  0.15157785  0.61323599  1
  C  C37  1  0.25504024  0.21128560  0.49635805  1
  C  C38  1  0.26201776  0.15539162  0.37732316  1
  C  C39  1  0.25725302  0.37387928  0.40214837  1
  C  C40  1  0.14754893  0.73926421  0.61520003  1
  C  C41  1  0.20908781  0.74549839  0.49945368  1
  C  C42  1  0.15523536  0.75156612  0.38030045  1
  C  C43  1  0.37254396  0.75138469  0.40682714  1
  C  C44  1  0.85247949  0.26073691  0.38479893  1
  C  C45  1  0.79093096  0.25450287  0.50053564  1
  C  C46  1  0.84477036  0.24843145  0.61969417  1
  C  C47  1  0.62746092  0.24861531  0.59313744  1
  C  C48  1  0.74617122  0.84841598  0.38673259  1
  C  C49  1  0.74495273  0.78871856  0.50362183  1
  C  C50  1  0.73795393  0.84461916  0.62264349  1
  C  C51  1  0.74277563  0.62613768  0.59785329  1
  I  I52  1  0.25084635  0.07145510  0.98850760  1
  I  I53  1  0.24363746  0.42973880  0.97692761  1
  I  I54  1  0.74916435  0.92853075  0.01150676  1
  I  I55  1  0.75632584  0.57021635  0.02310513  1
  I  I56  1  0.92667041  0.24649696  0.00573091  1
  I  I57  1  0.07332358  0.75352587  0.99424297  1
  I  I58  1  0.57007575  0.25304256  0.03397252  1
  I  I59  1  0.42996262  0.74692804  0.96606090  1
  I  I60  1  0.98420647  -0.00098028  0.69633343  1
  I  I61  1  0.01578188  1.00097398  0.30370421  1
  I  I62  1  0.99455540  0.47982351  0.69384581  1
  I  I63  1  0.00545918  0.52017233  0.30617779  1
  I  I64  1  0.49482129  0.98524529  0.69586748  1
  I  I65  1  0.50515350  0.01477992  0.30436345  1
  I  I66  1  0.46612735  0.46731738  0.69556346  1
  I  I67  1  0.53384472  0.53260416  0.30452777  1
  N  N68  1  0.26070395  0.23155028  0.72590790  1
  N  N69  1  0.26468266  0.21806246  0.28012407  1
  N  N70  1  0.26357085  0.32698038  0.28663157  1
  N  N71  1  0.25119471  0.32072095  0.50776287  1
  N  N72  1  0.22521579  0.73487294  0.72709689  1
  N  N73  1  0.21946746  0.75571032  0.28364932  1
  N  N74  1  0.32753591  0.75476702  0.29065147  1
  N  N75  1  0.31788938  0.74609402  0.51203455  1
  N  N76  1  0.77482125  0.26512756  0.27289512  1
  N  N77  1  0.78052455  0.24428602  0.71633701  1
  N  N78  1  0.67245630  0.24523248  0.70931850  1
  N  N79  1  0.68212956  0.25390714  0.48793810  1
  N  N80  1  0.73929643  0.76843567  0.27407029  1
  N  N81  1  0.73529632  0.78195904  0.71985241  1
  N  N82  1  0.73644665  0.67304386  0.71336386  1
  N  N83  1  0.74881707  0.67928579  0.49222538  1
