# generated using pymatgen
data_H8PbC4(IN)4
_symmetry_space_group_name_H-M   'P 1'
_cell_length_a   12.03842206
_cell_length_b   12.03651554
_cell_length_c   10.84976913
_cell_angle_alpha   92.89704659
_cell_angle_beta   92.19996579
_cell_angle_gamma   90.60817826
_symmetry_Int_Tables_number   1
_chemical_formula_structural   H8PbC4(IN)4
_chemical_formula_sum   'H32 Pb4 C16 I16 N16'
_cell_volume   1568.84795819
_cell_formula_units_Z   4
loop_
 _symmetry_equiv_pos_site_id
 _symmetry_equiv_pos_as_xyz
  1  'x, y, z'
loop_
 _atom_site_type_symbol
 _atom_site_label
 _atom_site_symmetry_multiplicity
 _atom_site_fract_x
 _atom_site_fract_y
 _atom_site_fract_z
 _atom_site_occupancy
  H  H0  1  0.25459166  0.21047502  0.80427048  1
  H  H1  1  0.32216708  0.30719922  0.72545173  1
  H  H2  1  0.18496748  0.30484916  0.72234623  1
  H  H3  1  0.17821963  0.11959210  0.61599979  1
  H  H4  1  0.32666126  0.12017592  0.62188385  1
  H  H5  1  0.25713079  0.09128839  0.36118135  1
  H  H6  1  0.25739170  0.21043509  0.19379702  1
  H  H7  1  0.25703801  0.40740665  0.21898254  1
  H  H8  1  0.20898898  0.74684070  0.80552177  1
  H  H9  1  0.30173914  0.67416136  0.72221739  1
  H  H10  1  0.30699555  0.81125764  0.72584971  1
  H  H11  1  0.11857204  0.81716221  0.62574047  1
  H  H12  1  0.11933153  0.66859856  0.61583608  1
  H  H13  1  0.09141136  0.75003014  0.36343513  1
  H  H14  1  0.21125466  0.75029308  0.19513168  1
  H  H15  1  0.40789878  0.74850840  0.21845558  1
  H  H16  1  0.79101334  0.25315897  0.19448592  1
  H  H17  1  0.69301155  0.18873929  0.27415583  1
  H  H18  1  0.69826226  0.32583659  0.27778706  1
  H  H19  1  0.88067260  0.33140547  0.38416771  1
  H  H20  1  0.88143624  0.18284165  0.37426715  1
  H  H21  1  0.90859031  0.24998247  0.63657325  1
  H  H22  1  0.78873320  0.24971407  0.80486800  1
  H  H23  1  0.59209819  0.25148653  0.78153636  1
  H  H24  1  0.74541632  0.78953340  0.19572957  1
  H  H25  1  0.81504784  0.69516521  0.27765424  1
  H  H26  1  0.67784865  0.69280246  0.27454705  1
  H  H27  1  0.67333925  0.87983102  0.37811589  1
  H  H28  1  0.82178132  0.88041903  0.38400529  1
  H  H29  1  0.74285717  0.90871607  0.63882295  1
  H  H30  1  0.74259828  0.78956586  0.80620574  1
  H  H31  1  0.74297553  0.59259680  0.78101792  1
  Pb  Pb32  1  0.99998254  1.00003031  1.00002247  1
  Pb  Pb33  1  1.00004625  0.49993265  0.00001195  1
  Pb  Pb34  1  0.49995508  -0.00005847  -0.00002349  1
  Pb  Pb35  1  0.50004219  0.49994140  -0.00002534  1
  C  C36  1  0.25280694  0.17351832  0.61297171  1
  C  C37  1  0.25369529  0.23545708  0.49668497  1
  C  C38  1  0.25638398  0.18089366  0.37995230  1
  C  C39  1  0.25650528  0.35876484  0.30121016  1
  C  C40  1  0.17244689  0.74381956  0.61436723  1
  C  C41  1  0.23484587  0.74646954  0.49751889  1
  C  C42  1  0.18079134  0.74824776  0.38143796  1
  C  C43  1  0.35888749  0.74909079  0.30100650  1
  C  C44  1  0.82756011  0.25618428  0.38563734  1
  C  C45  1  0.76515887  0.25353258  0.50248356  1
  C  C46  1  0.81920841  0.25175880  0.61856639  1
  C  C47  1  0.64110635  0.25090766  0.69898853  1
  C  C48  1  0.74720011  0.82649005  0.38702955  1
  C  C49  1  0.74630913  0.76455095  0.50331563  1
  C  C50  1  0.74361396  0.81911237  0.62005072  1
  C  C51  1  0.74350391  0.64123954  0.69879059  1
  I  I52  1  0.24930843  0.09042212  0.99655698  1
  I  I53  1  0.24778632  0.43122122  0.97969830  1
  I  I54  1  0.75066019  0.90960203  0.00345380  1
  I  I55  1  0.75224986  0.56876046  0.02029028  1
  I  I56  1  0.90919703  0.24806843  0.00384899  1
  I  I57  1  0.09079248  0.75191581  0.99615499  1
  I  I58  1  0.56798088  0.25089620  0.02502657  1
  I  I59  1  0.43205101  0.74903511  0.97493274  1
  I  I60  1  0.98313150  0.00218812  0.69953627  1
  I  I61  1  0.01685805  0.99781067  0.30044040  1
  I  I62  1  0.00621840  0.47016887  0.70106026  1
  I  I63  1  0.99378030  0.52983131  0.29897144  1
  I  I64  1  0.49471709  0.98229591  0.70255322  1
  I  I65  1  0.50524147  0.01772197  0.29747587  1
  I  I66  1  0.47288947  0.49151043  0.70319756  1
  I  I67  1  0.52711957  0.50846684  0.29677675  1
  N  N68  1  0.25372506  0.25325233  0.72277350  1
  N  N69  1  0.25678146  0.24685377  0.28358257  1
  N  N70  1  0.25349482  0.40952166  0.41258108  1
  N  N71  1  0.25140448  0.34715739  0.51048188  1
  N  N72  1  0.25191445  0.74415033  0.72332349  1
  N  N73  1  0.24723103  0.74913396  0.28435674  1
  N  N74  1  0.40918539  0.75154398  0.41254428  1
  N  N75  1  0.34652677  0.75016379  0.51078760  1
  N  N76  1  0.74808956  0.25584889  0.27668109  1
  N  N77  1  0.75276805  0.25087108  0.71563922  1
  N  N78  1  0.59081644  0.24844873  0.58744689  1
  N  N79  1  0.65347897  0.24983107  0.48920773  1
  N  N80  1  0.74628690  0.74675596  0.27722718  1
  N  N81  1  0.74321485  0.75314973  0.71641888  1
  N  N82  1  0.74651803  0.59048516  0.58741737  1
  N  N83  1  0.74860353  0.65285096  0.48951761  1
