# generated using pymatgen
data_H8PbC4(IN)4
_symmetry_space_group_name_H-M   'P 1'
_cell_length_a   12.14180843
_cell_length_b   12.18147948
_cell_length_c   10.56055593
_cell_angle_alpha   93.28794078
_cell_angle_beta   92.89312657
_cell_angle_gamma   90.15284602
_symmetry_Int_Tables_number   1
_chemical_formula_structural   H8PbC4(IN)4
_chemical_formula_sum   'H32 Pb4 C16 I16 N16'
_cell_volume   1557.37810127
_cell_formula_units_Z   4
loop_
 _symmetry_equiv_pos_site_id
 _symmetry_equiv_pos_as_xyz
  1  'x, y, z'
loop_
 _atom_site_type_symbol
 _atom_site_label
 _atom_site_symmetry_multiplicity
 _atom_site_fract_x
 _atom_site_fract_y
 _atom_site_fract_z
 _atom_site_occupancy
  H  H0  1  0.28682231  0.18787021  0.80867312  1
  H  H1  1  0.29232523  0.31472614  0.75711345  1
  H  H2  1  0.38363232  0.21869664  0.70808265  1
  H  H3  1  0.23311339  0.10337121  0.60981469  1
  H  H4  1  0.14061399  0.21191446  0.64896693  1
  H  H5  1  0.22619935  0.41697848  0.56781516  1
  H  H6  1  0.30056114  0.19648898  0.19920400  1
  H  H7  1  0.26722168  0.09481889  0.37797358  1
  H  H8  1  0.18392577  0.72339829  0.80975483  1
  H  H9  1  0.31064853  0.71124776  0.75828135  1
  H  H10  1  0.20974920  0.62089509  0.70421020  1
  H  H11  1  0.10174668  0.76924265  0.61201016  1
  H  H12  1  0.21121897  0.86159792  0.66053997  1
  H  H13  1  0.41826566  0.76501827  0.57535023  1
  H  H14  1  0.19753229  0.70379122  0.19533403  1
  H  H15  1  0.09547591  0.73764436  0.37760061  1
  H  H16  1  0.81062788  0.22966849  0.18952478  1
  H  H17  1  0.68420372  0.22030071  0.24332626  1
  H  H18  1  0.78343934  0.13024060  0.28640971  1
  H  H19  1  0.89638261  0.27836867  0.39090388  1
  H  H20  1  0.78809771  0.37135245  0.35451111  1
  H  H21  1  0.58066590  0.28227058  0.43566257  1
  H  H22  1  0.80561202  0.20965015  0.80042516  1
  H  H23  1  0.90552908  0.24856167  0.62140771  1
  H  H24  1  0.76567120  0.81479537  0.19119617  1
  H  H25  1  0.77660142  0.68791183  0.24095760  1
  H  H26  1  0.86677298  0.78819495  0.29630014  1
  H  H27  1  0.71877814  0.89706671  0.38803313  1
  H  H28  1  0.62573735  0.78747369  0.34324121  1
  H  H29  1  0.72541946  0.58294827  0.42713883  1
  H  H30  1  0.78784763  0.80645040  0.80581395  1
  H  H31  1  0.74918584  0.90643794  0.62380751  1
  Pb  Pb32  1  0.00051203  0.00322771  0.00692028  1
  Pb  Pb33  1  0.99548838  0.50158224  0.99217382  1
  Pb  Pb34  1  0.49617374  0.99866186  0.99667514  1
  Pb  Pb35  1  0.49916915  0.49962759  0.00115079  1
  C  C36  1  0.22478329  0.19302706  0.62063331  1
  C  C37  1  0.24866569  0.24603949  0.50012903  1
  C  C38  1  0.24905189  0.36046078  0.48995007  1
  C  C39  1  0.26799482  0.18433170  0.38908277  1
  C  C40  1  0.19167708  0.77648650  0.62549416  1
  C  C41  1  0.24665277  0.75094527  0.50326081  1
  C  C42  1  0.36109165  0.74857440  0.49356619  1
  C  C43  1  0.18509170  0.73545752  0.38900766  1
  C  C44  1  0.80651008  0.28676974  0.38033644  1
  C  C45  1  0.75295916  0.26183460  0.50047808  1
  C  C46  1  0.63848074  0.26021080  0.51237481  1
  C  C47  1  0.81583239  0.24411292  0.61104433  1
  C  C48  1  0.71145840  0.80728948  0.37589267  1
  C  C49  1  0.73890210  0.75468516  0.49835131  1
  C  C50  1  0.74403898  0.64075863  0.50836765  1
  C  C51  1  0.75401430  0.81713606  0.61232554  1
  I  I52  1  0.24856180  0.08384119  0.00046604  1
  I  I53  1  0.24508660  0.43249565  0.97847118  1
  I  I54  1  0.75014901  0.92477925  0.99712222  1
  I  I55  1  0.74760988  0.57682805  0.01882898  1
  I  I56  1  0.91763200  0.25049881  0.00297953  1
  I  I57  1  0.07783197  0.75250586  0.00240245  1
  I  I58  1  0.56448868  0.24941504  0.02085667  1
  I  I59  1  0.43060676  0.74944042  0.96797185  1
  I  I60  1  0.98309733  0.00087981  0.70782405  1
  I  I61  1  0.98205320  0.99698081  0.32044367  1
  I  I62  1  0.02571235  0.47637022  0.68277549  1
  I  I63  1  0.99096252  0.52869124  0.29794482  1
  I  I64  1  0.46391350  0.98238867  0.69096826  1
  I  I65  1  0.51486435  0.03023078  0.30606330  1
  I  I66  1  0.46038629  0.49415858  0.68311029  1
  I  I67  1  0.54751969  0.48597125  0.30175840  1
  N  N68  1  0.30213761  0.23209527  0.72889563  1
  N  N69  1  0.27278398  0.40847572  0.38209132  1
  N  N70  1  0.29577997  0.34868192  0.28089203  1
  N  N71  1  0.28906396  0.23900342  0.28600383  1
  N  N72  1  0.22756612  0.70318795  0.72819035  1
  N  N73  1  0.40960028  0.73002969  0.38140175  1
  N  N74  1  0.34983154  0.71030624  0.27686536  1
  N  N75  1  0.24025721  0.71492888  0.28327882  1
  N  N76  1  0.76738386  0.21185866  0.26999739  1
  N  N77  1  0.59168399  0.23304131  0.62024074  1
  N  N78  1  0.65266046  0.20945891  0.71977206  1
  N  N79  1  0.76227211  0.22047782  0.71411159  1
  N  N80  1  0.78464162  0.77061954  0.27200662  1
  N  N81  1  0.76877150  0.59351740  0.61916341  1
  N  N82  1  0.78946618  0.65427222  0.72305435  1
  N  N83  1  0.77812124  0.76328630  0.71744812  1
