# generated using pymatgen
data_H8PbC4(IN)4
_symmetry_space_group_name_H-M   'P 1'
_cell_length_a   12.38388395
_cell_length_b   12.28194003
_cell_length_c   10.20188968
_cell_angle_alpha   94.43874743
_cell_angle_beta   95.43874737
_cell_angle_gamma   90.33863554
_symmetry_Int_Tables_number   1
_chemical_formula_structural   H8PbC4(IN)4
_chemical_formula_sum   'H32 Pb4 C16 I16 N16'
_cell_volume   1539.93241681
_cell_formula_units_Z   4
loop_
 _symmetry_equiv_pos_site_id
 _symmetry_equiv_pos_as_xyz
  1  'x, y, z'
loop_
 _atom_site_type_symbol
 _atom_site_label
 _atom_site_symmetry_multiplicity
 _atom_site_fract_x
 _atom_site_fract_y
 _atom_site_fract_z
 _atom_site_occupancy
  H  H0  1  0.26453658  0.16637314  0.83418223  1
  H  H1  1  0.18024254  0.10994502  0.70691278  1
  H  H2  1  0.31678443  0.10419774  0.70340010  1
  H  H3  1  0.32732289  0.30778235  0.72131423  1
  H  H4  1  0.18391755  0.30987180  0.70838567  1
  H  H5  1  0.24289826  0.43221351  0.51301031  1
  H  H6  1  0.26201787  0.23566080  0.16289895  1
  H  H7  1  0.25611159  0.08118243  0.28438768  1
  H  H8  1  0.16739749  0.74065072  0.84089931  1
  H  H9  1  0.10826618  0.81022762  0.71666167  1
  H  H10  1  0.10938418  0.67019434  0.70620487  1
  H  H11  1  0.30857536  0.67257150  0.71623856  1
  H  H12  1  0.30712826  0.81783520  0.72875610  1
  H  H13  1  0.42951852  0.73920742  0.52417993  1
  H  H14  1  0.23248913  0.74805918  0.17001304  1
  H  H15  1  0.07996531  0.74342753  0.28957996  1
  H  H16  1  0.83026988  0.26116285  0.15925868  1
  H  H17  1  0.88884488  0.33051072  0.29424665  1
  H  H18  1  0.89075289  0.19062643  0.28216297  1
  H  H19  1  0.69217870  0.18107133  0.27135657  1
  H  H20  1  0.68910446  0.32620396  0.28436393  1
  H  H21  1  0.56980079  0.25919990  0.47631807  1
  H  H22  1  0.76709295  0.25356766  0.83059457  1
  H  H23  1  0.91986564  0.25621094  0.70972222  1
  H  H24  1  0.73887492  0.83553609  0.16762901  1
  H  H25  1  0.68646754  0.89720737  0.29875935  1
  H  H26  1  0.82314494  0.89142405  0.29510774  1
  H  H27  1  0.81911444  0.69154531  0.29278564  1
  H  H28  1  0.67572252  0.69351715  0.27850370  1
  H  H29  1  0.75722049  0.56834528  0.48660396  1
  H  H30  1  0.75136643  0.76496809  0.83892204  1
  H  H31  1  0.74354299  0.91925218  0.71629793  1
  Pb  Pb32  1  0.99281240  0.00408342  0.99637206  1
  Pb  Pb33  1  0.98737545  0.49864796  0.99582864  1
  Pb  Pb34  1  0.49366793  0.99088699  0.00043912  1
  Pb  Pb35  1  0.48912151  0.50082111  1.00045259  1
  C  C36  1  0.25366723  0.26246981  0.67706283  1
  C  C37  1  0.25306806  0.25546325  0.53011831  1
  C  C38  1  0.25057585  0.35213451  0.46081841  1
  C  C39  1  0.25826978  0.24732297  0.26948188  1
  C  C40  1  0.26171941  0.74401826  0.68532886  1
  C  C41  1  0.25373086  0.74451414  0.53832528  1
  C  C42  1  0.34955637  0.74385657  0.47043409  1
  C  C43  1  0.24456403  0.74807318  0.27716897  1
  C  C44  1  0.73686486  0.25526157  0.31501183  1
  C  C45  1  0.74546976  0.25468276  0.46198551  1
  C  C46  1  0.64985469  0.25546504  0.53019250  1
  C  C47  1  0.75518619  0.25237743  0.72329794  1
  C  C48  1  0.74913691  0.73872302  0.32377750  1
  C  C49  1  0.74901804  0.74529916  0.47054260  1
  C  C50  1  0.75244344  0.64852456  0.53959850  1
  C  C51  1  0.74966341  0.75329328  0.73169283  1
  I  I52  1  0.24540304  0.95099539  0.04404409  1
  I  I53  1  0.24321244  0.56796478  0.99369543  1
  I  I54  1  0.74184329  0.05017360  0.95306687  1
  I  I55  1  0.74260500  0.42857776  0.00727693  1
  I  I56  1  0.05926830  0.24976810  0.96215551  1
  I  I57  1  0.94830192  0.75409719  0.04380034  1
  I  I58  1  0.43849855  0.24424528  0.00230769  1
  I  I59  1  0.57664466  0.74595325  0.99541670  1
  I  I60  1  0.01112900  0.98007736  0.68346420  1
  I  I61  1  0.98909224  0.02372862  0.31198642  1
  I  I62  1  0.00786262  0.49349811  0.68212557  1
  I  I63  1  0.99404670  0.50356948  0.30902231  1
  I  I64  1  0.46357746  0.97352156  0.68158234  1
  I  I65  1  0.53474243  0.02187290  0.31683363  1
  I  I66  1  0.45780005  0.49632484  0.68270873  1
  I  I67  1  0.54045369  0.50669611  0.31817420  1
  N  N68  1  0.25260242  0.15405834  0.73194568  1
  N  N69  1  0.25465732  0.34694484  0.33037211  1
  N  N70  1  0.25679227  0.15720472  0.33560645  1
  N  N71  1  0.25495090  0.15743809  0.46609204  1
  N  N72  1  0.15474090  0.74161911  0.73915945  1
  N  N73  1  0.34401286  0.74656908  0.33990787  1
  N  N74  1  0.15557484  0.74645883  0.34205707  1
  N  N75  1  0.15627357  0.74522846  0.47267965  1
  N  N76  1  0.84354644  0.25913765  0.26081806  1
  N  N77  1  0.65560270  0.25361550  0.66071368  1
  N  N78  1  0.84401062  0.25316613  0.65802761  1
  N  N79  1  0.84303437  0.25395190  0.52726537  1
  N  N80  1  0.75066011  0.84748257  0.26989842  1
  N  N81  1  0.75262270  0.65367408  0.67061335  1
  N  N82  1  0.74555816  0.84334379  0.66514033  1
  N  N83  1  0.74536064  0.84320500  0.53445327  1
