# generated using pymatgen
data_H8PbC5I4N3F
_symmetry_space_group_name_H-M   'P 1'
_cell_length_a   12.19447881
_cell_length_b   12.19837010
_cell_length_c   10.90570939
_cell_angle_alpha   86.36126654
_cell_angle_beta   87.05492499
_cell_angle_gamma   91.07584244
_symmetry_Int_Tables_number   1
_chemical_formula_structural   H8PbC5I4N3F
_chemical_formula_sum   'H32 Pb4 C20 I16 N12 F4'
_cell_volume   1616.45051426
_cell_formula_units_Z   4
loop_
 _symmetry_equiv_pos_site_id
 _symmetry_equiv_pos_as_xyz
  1  'x, y, z'
loop_
 _atom_site_type_symbol
 _atom_site_label
 _atom_site_symmetry_multiplicity
 _atom_site_fract_x
 _atom_site_fract_y
 _atom_site_fract_z
 _atom_site_occupancy
  H  H0  1  0.16574700  0.22752198  0.72811207  1
  H  H1  1  0.23885947  0.31775227  0.80473714  1
  H  H2  1  0.30020746  0.21974758  0.72564515  1
  H  H3  1  0.17551959  0.40934767  0.61964719  1
  H  H4  1  0.32206471  0.40319990  0.61683183  1
  H  H5  1  0.23633613  0.43354698  0.36390557  1
  H  H6  1  0.23356641  0.32119412  0.19779665  1
  H  H7  1  0.23531210  0.12728617  0.21216457  1
  H  H8  1  0.23763019  0.84165786  0.72108664  1
  H  H9  1  0.32213875  0.76447480  0.80577758  1
  H  H10  1  0.21894390  0.70735724  0.73293044  1
  H  H11  1  0.41236360  0.83063939  0.60906321  1
  H  H12  1  0.40442152  0.68412104  0.63102360  1
  H  H13  1  0.43238952  0.75471650  0.36546484  1
  H  H14  1  0.31814127  0.75251018  0.19965235  1
  H  H15  1  0.12418013  0.74983197  0.21452883  1
  H  H16  1  0.78077394  0.29323708  0.26708714  1
  H  H17  1  0.67754139  0.23617688  0.19425021  1
  H  H18  1  0.76211235  0.15893766  0.27877637  1
  H  H19  1  0.59531035  0.31624394  0.36924129  1
  H  H20  1  0.58750555  0.16970945  0.39097340  1
  H  H21  1  0.56765188  0.24631500  0.63464207  1
  H  H22  1  0.68202874  0.24821807  0.80035400  1
  H  H23  1  0.87598709  0.25015567  0.78533892  1
  H  H24  1  0.69999399  0.77964631  0.27426543  1
  H  H25  1  0.76109633  0.68136279  0.19541863  1
  H  H26  1  0.83442132  0.77157700  0.27180674  1
  H  H27  1  0.67778645  0.59639795  0.38348723  1
  H  H28  1  0.82433157  0.59000472  0.38069622  1
  H  H29  1  0.76375676  0.56618492  0.63631651  1
  H  H30  1  0.76673247  0.67864176  0.80229676  1
  H  H31  1  0.76517148  0.87256788  0.78772536  1
  Pb  Pb32  1  0.99956573  0.00059550  0.00048598  1
  Pb  Pb33  1  0.00024871  0.50059466  0.99998077  1
  Pb  Pb34  1  0.50026248  0.00045699  0.99955837  1
  Pb  Pb35  1  0.49966745  0.50044337  0.99977710  1
  C  C36  1  0.24575099  0.35348344  0.61307550  1
  C  C37  1  0.24432065  0.29163980  0.49886581  1
  C  C38  1  0.23908036  0.34519720  0.38262660  1
  C  C39  1  0.23723087  0.17162584  0.29603644  1
  C  C40  1  0.24311263  0.12450967  0.41544503  1
  C  C41  1  0.35555221  0.75863841  0.61487339  1
  C  C42  1  0.29203410  0.75342317  0.50130477  1
  C  C43  1  0.34415313  0.75316537  0.38467333  1
  C  C44  1  0.16934153  0.74978624  0.29841674  1
  C  C45  1  0.12373944  0.74655244  0.41881643  1
  C  C46  1  0.64425391  0.24176370  0.38521714  1
  C  C47  1  0.70788797  0.24684427  0.49871996  1
  C  C48  1  0.65585994  0.24743296  0.61538004  1
  C  C49  1  0.83075469  0.25024722  0.70148598  1
  C  C50  1  0.87628637  0.25312640  0.58107031  1
  C  C51  1  0.75419271  0.64598244  0.38715333  1
  C  C52  1  0.75573643  0.70799524  0.50123640  1
  C  C53  1  0.76104779  0.65451167  0.61753018  1
  C  C54  1  0.76312098  0.82816411  0.70390600  1
  C  C55  1  0.75710002  0.87519640  0.58448987  1
  I  I56  1  0.25298886  0.07697005  0.97682387  1
  I  I57  1  0.24967957  0.42268755  0.99391136  1
  I  I58  1  0.74698507  0.92185178  0.02334162  1
  I  I59  1  0.75022613  0.57626969  0.00609073  1
  I  I60  1  0.92311123  0.24922549  0.02806108  1
  I  I61  1  0.07662485  0.75124611  0.97197999  1
  I  I62  1  0.57758252  0.25249678  0.00117759  1
  I  I63  1  0.42250042  0.74834765  0.99853465  1
  I  I64  1  0.01576998  0.00948921  0.70664537  1
  I  I65  1  0.98435020  0.99029871  0.29400085  1
  I  I66  1  0.99805280  0.50940072  0.70650312  1
  I  I67  1  0.00176355  0.49016202  0.29348886  1
  I  I68  1  0.49135449  0.01742791  0.70419384  1
  I  I69  1  0.50865571  0.98326014  0.29499487  1
  I  I70  1  0.51426992  0.49684344  0.70297355  1
  I  I71  1  0.48541165  0.50383575  0.29642558  1
  N  N72  1  0.23718567  0.27530989  0.72414958  1
  N  N73  1  0.23635011  0.28201792  0.28579935  1
  N  N74  1  0.24714946  0.18151069  0.51340167  1
  N  N75  1  0.27920821  0.76846640  0.72468068  1
  N  N76  1  0.27976681  0.75190739  0.28776720  1
  N  N77  1  0.18186505  0.74899125  0.51663524  1
  N  N78  1  0.72052151  0.23211180  0.27531162  1
  N  N79  1  0.72034892  0.24856175  0.71221414  1
  N  N80  1  0.81805354  0.25078492  0.48331517  1
  N  N81  1  0.76288561  0.72394888  0.27590624  1
  N  N82  1  0.76391922  0.71777140  0.71427693  1
  N  N83  1  0.75292454  0.81811086  0.48658493  1
  F  F84  1  0.24490789  0.01534784  0.43350691  1
  F  F85  1  0.01473102  0.73912251  0.43833223  1
  F  F86  1  0.98528658  0.26015588  0.56145635  1
  F  F87  1  0.75530531  0.98434744  0.56634547  1
