# generated using pymatgen
data_H8PbC4(IN)4
_symmetry_space_group_name_H-M   'P 1'
_cell_length_a   12.29699610
_cell_length_b   12.18457328
_cell_length_c   10.16434676
_cell_angle_alpha   86.03394359
_cell_angle_beta   85.61948510
_cell_angle_gamma   90.95434180
_symmetry_Int_Tables_number   1
_chemical_formula_structural   H8PbC4(IN)4
_chemical_formula_sum   'H32 Pb4 C16 I16 N16'
_cell_volume   1514.50724805
_cell_formula_units_Z   4
loop_
 _symmetry_equiv_pos_site_id
 _symmetry_equiv_pos_as_xyz
  1  'x, y, z'
loop_
 _atom_site_type_symbol
 _atom_site_label
 _atom_site_symmetry_multiplicity
 _atom_site_fract_x
 _atom_site_fract_y
 _atom_site_fract_z
 _atom_site_occupancy
  H  H0  1  0.24549222  0.33311949  0.80945742  1
  H  H1  1  0.32390855  0.39207447  0.68031993  1
  H  H2  1  0.18530849  0.39519258  0.68332293  1
  H  H3  1  0.17633533  0.19088436  0.69518114  1
  H  H4  1  0.32067252  0.19130141  0.67833603  1
  H  H5  1  0.24317908  0.06946979  0.47799542  1
  H  H6  1  0.24169051  0.10210886  0.22725173  1
  H  H7  1  0.24453222  0.42881109  0.26436741  1
  H  H8  1  0.32652425  0.75694900  0.80624352  1
  H  H9  1  0.38868621  0.68831833  0.68426036  1
  H  H10  1  0.38853955  0.82825128  0.67475034  1
  H  H11  1  0.18727485  0.82550053  0.67534505  1
  H  H12  1  0.18777686  0.67972895  0.68957687  1
  H  H13  1  0.06912680  0.75057154  0.47402295  1
  H  H14  1  0.10287517  0.74900861  0.22256585  1
  H  H15  1  0.42686926  0.74793603  0.25878511  1
  H  H16  1  0.66839389  0.24301375  0.19432454  1
  H  H17  1  0.60775553  0.17126088  0.32600618  1
  H  H18  1  0.60795787  0.31135942  0.31739354  1
  H  H19  1  0.80902709  0.31900806  0.30857181  1
  H  H20  1  0.80882329  0.17314825  0.32306085  1
  H  H21  1  0.93078107  0.24940853  0.52024656  1
  H  H22  1  0.90164201  0.25452886  0.77139063  1
  H  H23  1  0.57629939  0.25220448  0.74477454  1
  H  H24  1  0.75323585  0.66699284  0.19101722  1
  H  H25  1  0.81902306  0.60584141  0.31370391  1
  H  H26  1  0.68026853  0.60672170  0.32278873  1
  H  H27  1  0.68129912  0.80822823  0.32306931  1
  H  H28  1  0.82565744  0.80964016  0.30630098  1
  H  H29  1  0.75911710  0.93027789  0.52289961  1
  H  H30  1  0.76233324  0.89820451  0.77337129  1
  H  H31  1  0.75891117  0.57132682  0.73728961  1
  Pb  Pb32  1  0.99095635  0.00227582  0.00419319  1
  Pb  Pb33  1  0.99487148  0.49273054  0.00177307  1
  Pb  Pb34  1  0.49093576  0.99773500  0.99648037  1
  Pb  Pb35  1  0.49430889  0.50445769  1.00014205  1
  C  C36  1  0.24901450  0.23769273  0.64944806  1
  C  C37  1  0.24562660  0.24612274  0.50211095  1
  C  C38  1  0.24371329  0.15198165  0.42968260  1
  C  C39  1  0.24280906  0.16911906  0.29283927  1
  C  C40  1  0.23415928  0.75359220  0.64580658  1
  C  C41  1  0.24401065  0.75086628  0.49825378  1
  C  C42  1  0.15111519  0.75012135  0.42558630  1
  C  C43  1  0.16869209  0.74873385  0.28889765  1
  C  C44  1  0.76273359  0.24539133  0.35314674  1
  C  C45  1  0.75521735  0.24853830  0.50065548  1
  C  C46  1  0.84954278  0.25019489  0.57063510  1
  C  C47  1  0.83438211  0.25342420  0.70734993  1
  C  C48  1  0.75326459  0.76217005  0.35160910  1
  C  C49  1  0.75677653  0.75354983  0.49908472  1
  C  C50  1  0.75894529  0.84782260  0.57133253  1
  C  C51  1  0.76093870  0.83098130  0.70806803  1
  I  I52  1  0.24626940  0.93712773  0.95606013  1
  I  I53  1  0.24682136  0.56300870  0.99755378  1
  I  I54  1  0.74298584  0.06351428  0.04191684  1
  I  I55  1  0.74345535  0.43872919  0.00486675  1
  I  I56  1  0.07799446  0.24893435  0.98764596  1
  I  I57  1  0.94013276  0.74614450  1.00491543  1
  I  I58  1  0.43916489  0.25163859  0.94720670  1
  I  I59  1  0.56753120  0.75041535  0.05167011  1
  I  I60  1  0.00420361  0.01879601  0.68806129  1
  I  I61  1  0.99050747  0.98443924  0.31897582  1
  I  I62  1  0.01895357  0.50979630  0.68492695  1
  I  I63  1  0.97981974  0.48572509  0.31804663  1
  I  I64  1  0.52276561  0.98679166  0.68269815  1
  I  I65  1  0.47485431  0.01042134  0.31305135  1
  I  I66  1  0.49886841  0.52273326  0.68309345  1
  I  I67  1  0.50015631  0.48086215  0.31776380  1
  N  N68  1  0.25199871  0.34645678  0.70698147  1
  N  N69  1  0.24474204  0.27080900  0.23248232  1
  N  N70  1  0.24418380  0.35122080  0.31177131  1
  N  N71  1  0.24417346  0.34714039  0.44130519  1
  N  N72  1  0.34102397  0.75709606  0.70437907  1
  N  N73  1  0.27002111  0.74791116  0.22897006  1
  N  N74  1  0.34928972  0.74773181  0.30792331  1
  N  N75  1  0.34445996  0.74905085  0.43764791  1
  N  N76  1  0.65502909  0.24247900  0.29639889  1
  N  N77  1  0.73406650  0.25433600  0.76980067  1
  N  N78  1  0.65315980  0.25262147  0.69325023  1
  N  N79  1  0.65565190  0.25008916  0.56385671  1
  N  N80  1  0.75083529  0.65366308  0.29321918  1
  N  N81  1  0.75966733  0.72940098  0.76867885  1
  N  N82  1  0.75921318  0.64883561  0.68965396  1
  N  N83  1  0.75822285  0.65263206  0.56014088  1
