# generated using pymatgen
data_H7PbC3I4N5
_symmetry_space_group_name_H-M   'P 1'
_cell_length_a   12.01435170
_cell_length_b   12.00692912
_cell_length_c   10.49514589
_cell_angle_alpha   89.51354783
_cell_angle_beta   89.08727380
_cell_angle_gamma   92.26546089
_symmetry_Int_Tables_number   1
_chemical_formula_structural   H7PbC3I4N5
_chemical_formula_sum   'H28 Pb4 C12 I16 N20'
_cell_volume   1512.54391204
_cell_formula_units_Z   4
loop_
 _symmetry_equiv_pos_site_id
 _symmetry_equiv_pos_as_xyz
  1  'x, y, z'
loop_
 _atom_site_type_symbol
 _atom_site_label
 _atom_site_symmetry_multiplicity
 _atom_site_fract_x
 _atom_site_fract_y
 _atom_site_fract_z
 _atom_site_occupancy
  H  H0  1  0.28066660  0.23425387  0.81704467  1
  H  H1  1  0.20127994  0.15526744  0.71908688  1
  H  H2  1  0.34061467  0.15990621  0.70241289  1
  H  H3  1  0.33968734  0.36283451  0.64907465  1
  H  H4  1  0.19278761  0.35703334  0.66718225  1
  H  H5  1  0.25175160  0.06206572  0.30813560  1
  H  H6  1  0.23849171  0.21993427  0.16587164  1
  H  H7  1  0.23885205  0.76554022  0.81749106  1
  H  H8  1  0.16570102  0.83081555  0.70586141  1
  H  H9  1  0.15644648  0.69007546  0.72024402  1
  H  H10  1  0.35640195  0.67667367  0.66216595  1
  H  H11  1  0.36645560  0.82418828  0.64806683  1
  H  H12  1  0.06345121  0.75017512  0.30848535  1
  H  H13  1  0.21913544  0.71025736  0.16651387  1
  H  H14  1  0.78740877  0.23654765  0.17270871  1
  H  H15  1  0.85790940  0.30797035  0.28516543  1
  H  H16  1  0.84767147  0.16674131  0.29179959  1
  H  H17  1  0.64288855  0.17265378  0.32357988  1
  H  H18  1  0.65438000  0.32029432  0.31158599  1
  H  H19  1  0.90848799  0.27639531  0.69937068  1
  H  H20  1  0.73983621  0.31212409  0.81775507  1
  H  H21  1  0.72172045  0.78932521  0.17431355  1
  H  H22  1  0.66558261  0.85258906  0.30045231  1
  H  H23  1  0.80519352  0.85875500  0.27865636  1
  H  H24  1  0.81559897  0.65566104  0.30889587  1
  H  H25  1  0.66879444  0.64506163  0.32461242  1
  H  H26  1  0.75803460  0.91357212  0.69941964  1
  H  H27  1  0.77472508  0.74479232  0.82228042  1
  Pb  Pb28  1  0.99879229  0.00272180  0.00626487  1
  Pb  Pb29  1  0.00149437  0.49877646  0.02471992  1
  Pb  Pb30  1  0.50325176  0.99904389  0.02161853  1
  Pb  Pb31  1  0.49633947  0.50342319  0.06187693  1
  C  C32  1  0.26417360  0.30706456  0.63752354  1
  C  C33  1  0.25280171  0.27369567  0.50225933  1
  C  C34  1  0.24908622  0.14615407  0.34664043  1
  C  C35  1  0.30839548  0.75037011  0.63589222  1
  C  C36  1  0.27400107  0.74312477  0.50122708  1
  C  C37  1  0.14674271  0.74190225  0.34656828  1
  C  C38  1  0.69887009  0.24592945  0.34314945  1
  C  C39  1  0.71743287  0.25453752  0.48229359  1
  C  C40  1  0.82840598  0.27422279  0.65139250  1
  C  C41  1  0.74245937  0.70106456  0.34277951  1
  C  C42  1  0.74972469  0.72017000  0.48221137  1
  C  C43  1  0.75799421  0.83287333  0.65195541  1
  I  I44  1  0.24722494  0.93059075  0.03772332  1
  I  I45  1  0.25455076  0.58121250  0.99306802  1
  I  I46  1  0.75468318  0.08192696  0.96836820  1
  I  I47  1  0.74543061  0.42482264  0.01751724  1
  I  I48  1  0.08109958  0.25449830  0.98390759  1
  I  I49  1  0.92492941  0.74768927  0.01937000  1
  I  I50  1  0.42724727  0.25091610  0.01879954  1
  I  I51  1  0.58234534  0.75351863  0.99137757  1
  I  I52  1  0.03689479  0.99665054  0.70241199  1
  I  I53  1  0.97040590  0.00104738  0.31656236  1
  I  I54  1  0.01831167  0.52177713  0.71613671  1
  I  I55  1  0.97844663  0.48620973  0.32823943  1
  I  I56  1  0.48258916  0.00705546  0.71720225  1
  I  I57  1  0.50863557  0.98418287  0.32772796  1
  I  I58  1  0.50409979  0.50608279  0.74353522  1
  I  I59  1  0.50577794  0.48146631  0.36034445  1
  N  N60  1  0.27196986  0.20871490  0.72323692  1
  N  N61  1  0.25551832  0.16597911  0.47071043  1
  N  N62  1  0.24016083  0.23095542  0.26384005  1
  N  N63  1  0.23246363  0.33856585  0.29833001  1
  N  N64  1  0.23936704  0.35990361  0.41870329  1
  N  N65  1  0.21177157  0.76009840  0.72443647  1
  N  N66  1  0.16681091  0.75089015  0.47023107  1
  N  N67  1  0.23058821  0.72556053  0.26364651  1
  N  N68  1  0.33782953  0.71861202  0.29707346  1
  N  N69  1  0.36009607  0.72960884  0.41657883  1
  N  N70  1  0.80449873  0.23837910  0.26940712  1
  N  N71  1  0.82151453  0.25527646  0.52710469  1
  N  N72  1  0.73648289  0.28957867  0.72176458  1
  N  N73  1  0.63159717  0.27686013  0.67700248  1
  N  N74  1  0.62295215  0.25867598  0.55490083  1
  N  N75  1  0.73383877  0.80669863  0.27048207  1
  N  N76  1  0.74921753  0.82486266  0.52651516  1
  N  N77  1  0.76603404  0.74096658  0.72425453  1
  N  N78  1  0.76215092  0.63566144  0.67809853  1
  N  N79  1  0.75415505  0.62631408  0.55478522  1
