# generated using pymatgen
data_H7PbC4I4N4F
_symmetry_space_group_name_H-M   'P 1'
_cell_length_a   12.09038414
_cell_length_b   12.09173442
_cell_length_c   10.55584235
_cell_angle_alpha   90.29627669
_cell_angle_beta   91.04937156
_cell_angle_gamma   90.48886666
_symmetry_Int_Tables_number   1
_chemical_formula_structural   H7PbC4I4N4F
_chemical_formula_sum   'H28 Pb4 C16 I16 N16 F4'
_cell_volume   1542.86091510
_cell_formula_units_Z   4
loop_
 _symmetry_equiv_pos_site_id
 _symmetry_equiv_pos_as_xyz
  1  'x, y, z'
loop_
 _atom_site_type_symbol
 _atom_site_label
 _atom_site_symmetry_multiplicity
 _atom_site_fract_x
 _atom_site_fract_y
 _atom_site_fract_z
 _atom_site_occupancy
  H  H0  1  0.18914071  0.13703894  0.72167857  1
  H  H1  1  0.32805853  0.13553523  0.70931269  1
  H  H2  1  0.27060317  0.20957038  0.82510357  1
  H  H3  1  0.18350419  0.33794670  0.67685091  1
  H  H4  1  0.32903842  0.34078480  0.67209882  1
  H  H5  1  0.25400558  0.05156474  0.31068164  1
  H  H6  1  0.25894190  0.20472082  0.16982194  1
  H  H7  1  0.14064581  0.82157949  0.72194925  1
  H  H8  1  0.13473297  0.68073875  0.71827111  1
  H  H9  1  0.21094212  0.74527807  0.83041975  1
  H  H10  1  0.34072808  0.81972458  0.67922162  1
  H  H11  1  0.33713503  0.67306984  0.67957965  1
  H  H12  1  0.05279410  0.74471373  0.31078823  1
  H  H13  1  0.20727590  0.73208994  0.17375637  1
  H  H14  1  0.86335465  0.31786334  0.28215760  1
  H  H15  1  0.85569505  0.17768347  0.27121371  1
  H  H16  1  0.78766812  0.25950889  0.16490650  1
  H  H17  1  0.65958950  0.32548095  0.31538873  1
  H  H18  1  0.65718355  0.17865872  0.31511109  1
  H  H19  1  0.94756686  0.25950812  0.67966782  1
  H  H20  1  0.79499822  0.27667038  0.81946835  1
  H  H21  1  0.67418720  0.86222451  0.28798028  1
  H  H22  1  0.81280846  0.86051997  0.27468191  1
  H  H23  1  0.73051259  0.78931290  0.16994008  1
  H  H24  1  0.67233418  0.65714308  0.32218340  1
  H  H25  1  0.81810407  0.65967067  0.31787495  1
  H  H26  1  0.75054641  0.94937000  0.67935628  1
  H  H27  1  0.74763013  0.79842405  0.82365780  1
  Pb  Pb28  1  0.99827524  0.00195357  0.01056027  1
  Pb  Pb29  1  0.99985389  0.49871953  0.01594385  1
  Pb  Pb30  1  0.50226102  0.99738847  0.01248143  1
  Pb  Pb31  1  0.49736670  0.50018005  0.01933690  1
  C  C32  1  0.25535845  0.28684667  0.65050358  1
  C  C33  1  0.25116246  0.25891537  0.51352633  1
  C  C34  1  0.25245472  0.13514979  0.34980515  1
  C  C35  1  0.24876990  0.34386352  0.42074876  1
  C  C36  1  0.28664275  0.74723079  0.65580653  1
  C  C37  1  0.25832382  0.74681090  0.51885946  1
  C  C38  1  0.13601584  0.74421922  0.35209500  1
  C  C39  1  0.34416418  0.74515624  0.42830494  1
  C  C40  1  0.71037083  0.25151455  0.33866719  1
  C  C41  1  0.73878843  0.25276717  0.47581730  1
  C  C42  1  0.86365843  0.25934067  0.64037248  1
  C  C43  1  0.65435158  0.25525347  0.56796832  1
  C  C44  1  0.74596521  0.71053956  0.34378051  1
  C  C45  1  0.74991550  0.73864524  0.48096509  1
  C  C46  1  0.75096122  0.86508725  0.64233477  1
  C  C47  1  0.75139611  0.65508548  0.57531534  1
  I  I48  1  0.24924006  0.93539289  0.03384359  1
  I  I49  1  0.24954139  0.58634781  0.00756087  1
  I  I50  1  0.75061010  0.06859940  0.96436183  1
  I  I51  1  0.74864952  0.41789146  0.99640066  1
  I  I52  1  0.07223031  0.25119367  0.98392682  1
  I  I53  1  0.93050599  0.75010976  0.01579126  1
  I  I54  1  0.41999553  0.24778916  0.01182418  1
  I  I55  1  0.58419509  0.74935991  0.99016985  1
  I  I56  1  0.02607737  0.99471625  0.70303796  1
  I  I57  1  0.96999808  0.00587121  0.31441392  1
  I  I58  1  0.01600840  0.51132611  0.71026975  1
  I  I59  1  0.97989377  0.48674376  0.31876886  1
  I  I60  1  0.47756266  0.99594329  0.70706449  1
  I  I61  1  0.52314961  0.99788610  0.31612996  1
  I  I62  1  0.47902768  0.50163194  0.71626167  1
  I  I63  1  0.51618930  0.49292538  0.31946192  1
  N  N64  1  0.26037514  0.18653486  0.73040477  1
  N  N65  1  0.25225059  0.15377353  0.47429848  1
  N  N66  1  0.25154168  0.21840846  0.26660328  1
  N  N67  1  0.24957459  0.32505141  0.29867322  1
  N  N68  1  0.18717584  0.74956630  0.73550072  1
  N  N69  1  0.15346356  0.74735909  0.47709768  1
  N  N70  1  0.21992817  0.74124712  0.27121919  1
  N  N71  1  0.32645119  0.74158091  0.30593476  1
  N  N72  1  0.81041062  0.25059198  0.25985331  1
  N  N73  1  0.84416664  0.25318891  0.51590412  1
  N  N74  1  0.78093099  0.26490621  0.72272796  1
  N  N75  1  0.67409184  0.26254422  0.68994529  1
  N  N76  1  0.74144325  0.81146216  0.26499264  1
  N  N77  1  0.75016998  0.84430098  0.51832508  1
  N  N78  1  0.75154411  0.78302807  0.72712663  1
  N  N79  1  0.75182682  0.67603794  0.69711775  1
  F  F80  1  0.24678347  0.44917591  0.45764033  1
  F  F81  1  0.44918545  0.74686168  0.46824555  1
  F  F82  1  0.54850671  0.25046178  0.53127872  1
  F  F83  1  0.75161906  0.54903147  0.54150711  1
