# generated using pymatgen
data_H7PbC4I4N4F
_symmetry_space_group_name_H-M   'P 1'
_cell_length_a   12.10946937
_cell_length_b   12.17627362
_cell_length_c   10.51643442
_cell_angle_alpha   91.10386558
_cell_angle_beta   89.23057216
_cell_angle_gamma   89.90652125
_symmetry_Int_Tables_number   1
_chemical_formula_structural   H7PbC4I4N4F
_chemical_formula_sum   'H28 Pb4 C16 I16 N16 F4'
_cell_volume   1550.19912036
_cell_formula_units_Z   4
loop_
 _symmetry_equiv_pos_site_id
 _symmetry_equiv_pos_as_xyz
  1  'x, y, z'
loop_
 _atom_site_type_symbol
 _atom_site_label
 _atom_site_symmetry_multiplicity
 _atom_site_fract_x
 _atom_site_fract_y
 _atom_site_fract_z
 _atom_site_occupancy
  H  H0  1  0.31791454  0.37916652  0.72138017  1
  H  H1  1  0.17835299  0.38117899  0.71517014  1
  H  H2  1  0.24115702  0.30734571  0.82715169  1
  H  H3  1  0.17733450  0.17836696  0.67332333  1
  H  H4  1  0.32356330  0.18110408  0.67225402  1
  H  H5  1  0.24320736  0.35333484  0.18346965  1
  H  H6  1  0.24393006  0.15840313  0.20668617  1
  H  H7  1  0.36977943  0.68071699  0.73460716  1
  H  H8  1  0.37688279  0.82023955  0.72515206  1
  H  H9  1  0.29675326  0.76387239  0.83731435  1
  H  H10  1  0.17435984  0.82579511  0.67915893  1
  H  H11  1  0.17483317  0.68012025  0.67776616  1
  H  H12  1  0.36319614  0.75934430  0.19155629  1
  H  H13  1  0.16754266  0.75891249  0.21650001  1
  H  H14  1  0.62327512  0.18061630  0.27685585  1
  H  H15  1  0.63080192  0.32006661  0.26608186  1
  H  H16  1  0.70338707  0.23533749  0.16368619  1
  H  H17  1  0.82587055  0.32013465  0.32224206  1
  H  H18  1  0.82584344  0.17445487  0.32116267  1
  H  H19  1  0.63905420  0.24188080  0.80901003  1
  H  H20  1  0.83401322  0.24415593  0.78359936  1
  H  H21  1  0.81939291  0.61813615  0.28427367  1
  H  H22  1  0.67984083  0.62107084  0.27798074  1
  H  H23  1  0.75744582  0.69205142  0.17204435  1
  H  H24  1  0.67583413  0.81930000  0.32713898  1
  H  H25  1  0.82208548  0.82084698  0.32544058  1
  H  H26  1  0.75638093  0.64584141  0.81530318  1
  H  H27  1  0.75620688  0.84092903  0.79224626  1
  Pb  Pb28  1  0.00172256  0.99529107  0.00064823  1
  Pb  Pb29  1  0.00244785  0.49878676  0.00019377  1
  Pb  Pb30  1  0.50689549  0.99906386  1.00018970  1
  Pb  Pb31  1  0.50007162  0.49438269  0.00027756  1
  C  C32  1  0.24963970  0.23027815  0.65021065  1
  C  C33  1  0.24960670  0.25851236  0.51257428  1
  C  C34  1  0.24639828  0.21241639  0.29057201  1
  C  C35  1  0.24849627  0.17832106  0.41589064  1
  C  C36  1  0.22723434  0.75276059  0.65787997  1
  C  C37  1  0.26065249  0.75172796  0.52143703  1
  C  C38  1  0.21967962  0.75571268  0.30006641  1
  C  C39  1  0.18231415  0.75235873  0.42480107  1
  C  C40  1  0.77330563  0.24772190  0.34250126  1
  C  C41  1  0.74011056  0.24903990  0.47894229  1
  C  C42  1  0.78169051  0.24646846  0.70011754  1
  C  C43  1  0.81868400  0.24900918  0.57526933  1
  C  C44  1  0.74943286  0.76949918  0.34883119  1
  C  C45  1  0.74963141  0.74130084  0.48638984  1
  C  C46  1  0.75296974  0.78710489  0.70832505  1
  C  C47  1  0.75108954  0.82140953  0.58309890  1
  I  I48  1  0.25313525  0.92090493  0.02128011  1
  I  I49  1  0.25090070  0.56017728  0.04738487  1
  I  I50  1  0.75295563  0.08993397  0.98250373  1
  I  I51  1  0.75086679  0.44454040  0.94961678  1
  I  I52  1  0.07934169  0.24908550  0.99370113  1
  I  I53  1  0.91203288  0.74991264  0.00458750  1
  I  I54  1  0.42839418  0.24568070  0.97727642  1
  I  I55  1  0.55977301  0.74680902  0.02705618  1
  I  I56  1  0.01604817  0.98731195  0.69826437  1
  I  I57  1  0.98310527  0.01062863  0.30267113  1
  I  I58  1  0.02840862  0.51049268  0.69646295  1
  I  I59  1  0.97204829  0.49107921  0.30289773  1
  I  I60  1  0.49108127  0.97943053  0.69669839  1
  I  I61  1  0.51283078  0.01966151  0.30402697  1
  I  I62  1  0.47166943  0.51107328  0.69717513  1
  I  I63  1  0.52712830  0.48715008  0.30443600  1
  N  N64  1  0.24714995  0.33022615  0.73267544  1
  N  N65  1  0.25021516  0.36629920  0.48272504  1
  N  N66  1  0.24889603  0.39898819  0.36584243  1
  N  N67  1  0.24650235  0.32129289  0.27397602  1
  N  N68  1  0.32325678  0.75368938  0.74360047  1
  N  N69  1  0.36987086  0.75077671  0.49096871  1
  N  N70  1  0.40526630  0.75259929  0.37355817  1
  N  N71  1  0.32969474  0.75612841  0.28262584  1
  N  N72  1  0.67702391  0.24687662  0.25741310  1
  N  N73  1  0.63094596  0.24954873  0.50964401  1
  N  N74  1  0.59576642  0.24783933  0.62713784  1
  N  N75  1  0.67171206  0.24537120  0.71781172  1
  N  N76  1  0.75092443  0.66940088  0.26661467  1
  N  N77  1  0.74879299  0.63345545  0.51609549  1
  N  N78  1  0.75007006  0.60066867  0.63291807  1
  N  N79  1  0.75256435  0.67822150  0.72487457  1
  F  F80  1  0.24871197  0.07219196  0.44274469  1
  F  F81  1  0.07459969  0.75038873  0.45115705  1
  F  F82  1  0.92636180  0.25077685  0.54847434  1
  F  F83  1  0.75161769  0.92752102  0.55633027  1
