# generated using pymatgen
data_H7PbC4I4N4F
_symmetry_space_group_name_H-M   'P 1'
_cell_length_a   12.21892116
_cell_length_b   12.09062078
_cell_length_c   10.73016376
_cell_angle_alpha   91.85972442
_cell_angle_beta   91.03880378
_cell_angle_gamma   91.28275513
_symmetry_Int_Tables_number   1
_chemical_formula_structural   H7PbC4I4N4F
_chemical_formula_sum   'H28 Pb4 C16 I16 N16 F4'
_cell_volume   1583.69959977
_cell_formula_units_Z   4
loop_
 _symmetry_equiv_pos_site_id
 _symmetry_equiv_pos_as_xyz
  1  'x, y, z'
loop_
 _atom_site_type_symbol
 _atom_site_label
 _atom_site_symmetry_multiplicity
 _atom_site_fract_x
 _atom_site_fract_y
 _atom_site_fract_z
 _atom_site_occupancy
  H  H0  1  0.17899112  0.32430070  0.71900472  1
  H  H1  1  0.31585996  0.33350479  0.72324730  1
  H  H2  1  0.25022461  0.25804359  0.82858732  1
  H  H3  1  0.18173717  0.12297695  0.67162308  1
  H  H4  1  0.32673869  0.12792564  0.68112640  1
  H  H5  1  0.26019591  0.07143812  0.24731473  1
  H  H6  1  0.25223117  0.25885549  0.18699050  1
  H  H7  1  0.32827540  0.80817856  0.72690659  1
  H  H8  1  0.31742380  0.66844208  0.71928632  1
  H  H9  1  0.25103854  0.74047249  0.82961818  1
  H  H10  1  0.12667012  0.82097843  0.68359053  1
  H  H11  1  0.12129153  0.67397313  0.66886847  1
  H  H12  1  0.07330409  0.75989565  0.25016111  1
  H  H13  1  0.25850006  0.75780170  0.18722956  1
  H  H14  1  0.67835542  0.33608982  0.28187373  1
  H  H15  1  0.66554490  0.19646752  0.27158729  1
  H  H16  1  0.74170646  0.26509524  0.16854355  1
  H  H17  1  0.87593923  0.32530861  0.32700935  1
  H  H18  1  0.86561607  0.17833457  0.31315933  1
  H  H19  1  0.92181426  0.24732179  0.74727133  1
  H  H20  1  0.73601107  0.25748989  0.80986842  1
  H  H21  1  0.68897807  0.66712494  0.28579533  1
  H  H22  1  0.82499140  0.67994899  0.27724849  1
  H  H23  1  0.74227697  0.74307721  0.17363739  1
  H  H24  1  0.67743321  0.87521048  0.32257845  1
  H  H25  1  0.82246644  0.87922151  0.32990087  1
  H  H26  1  0.73331584  0.92843588  0.75522745  1
  H  H27  1  0.72078813  0.74022005  0.81296441  1
  Pb  Pb28  1  0.99324030  0.00326922  0.00126494  1
  Pb  Pb29  1  0.99413741  0.49677043  0.00039180  1
  Pb  Pb30  1  0.49519105  0.99423000  0.00500350  1
  Pb  Pb31  1  0.49251381  0.50192915  0.00475343  1
  C  C32  1  0.25457853  0.17662643  0.65500173  1
  C  C33  1  0.25813870  0.20113824  0.52020797  1
  C  C34  1  0.26104772  0.13648539  0.32019863  1
  C  C35  1  0.25794391  0.32523308  0.36926519  1
  C  C36  1  0.17456539  0.74791689  0.65548736  1
  C  C37  1  0.20087325  0.75392616  0.52103705  1
  C  C38  1  0.13729665  0.76027569  0.32210614  1
  C  C39  1  0.32383344  0.75778991  0.36875587  1
  C  C40  1  0.82048761  0.25330156  0.34138182  1
  C  C41  1  0.79483508  0.24867833  0.47613097  1
  C  C42  1  0.85773822  0.24590947  0.67546796  1
  C  C43  1  0.67134088  0.24758617  0.62795812  1
  C  C44  1  0.74958630  0.82591912  0.34731960  1
  C  C45  1  0.74644327  0.80093435  0.48199644  1
  C  C46  1  0.73509611  0.86397168  0.68179384  1
  C  C47  1  0.74087492  0.67568037  0.63150891  1
  I  I48  1  0.24397747  0.92548099  0.01276549  1
  I  I49  1  0.24774004  0.58102358  0.02973291  1
  I  I50  1  0.74644974  0.07505670  0.98942594  1
  I  I51  1  0.74365555  0.41912717  0.97349773  1
  I  I52  1  0.08957183  0.25157972  0.01874907  1
  I  I53  1  0.93661392  0.74640987  0.96265258  1
  I  I54  1  0.43033951  0.24512967  0.99317128  1
  I  I55  1  0.59424004  0.74839485  0.99802071  1
  I  I56  1  0.99226570  0.00592304  0.70423901  1
  I  I57  1  0.00555050  0.00394064  0.29994314  1
  I  I58  1  0.03463265  0.46937417  0.70468152  1
  I  I59  1  0.96470719  0.53078190  0.29548982  1
  I  I60  1  0.47642288  0.95618284  0.70624848  1
  I  I61  1  0.52060774  0.04193516  0.30204484  1
  I  I62  1  0.44374080  0.50786670  0.70692261  1
  I  I63  1  0.55498699  0.49947055  0.30230896  1
  N  N64  1  0.24968849  0.27838428  0.73533456  1
  N  N65  1  0.26036080  0.11405418  0.43996963  1
  N  N66  1  0.25917647  0.24293245  0.28144413  1
  N  N67  1  0.25769434  0.30888056  0.48840511  1
  N  N68  1  0.27329690  0.74103168  0.73689178  1
  N  N69  1  0.11503075  0.75777456  0.44194956  1
  N  N70  1  0.24263368  0.76051672  0.28223907  1
  N  N71  1  0.30762875  0.75383317  0.48792546  1
  N  N72  1  0.72097331  0.26303973  0.26174266  1
  N  N73  1  0.88037889  0.24556529  0.55548606  1
  N  N74  1  0.75227146  0.24762560  0.71510524  1
  N  N75  1  0.68795224  0.24872312  0.50877286  1
  N  N76  1  0.75236721  0.72400414  0.26693169  1
  N  N77  1  0.74240182  0.88754753  0.56276833  1
  N  N78  1  0.73325963  0.75713135  0.71936567  1
  N  N79  1  0.74795773  0.69309520  0.51293012  1
  F  F80  1  0.25565913  0.42654052  0.32781578  1
  F  F81  1  0.42401433  0.75865960  0.32516088  1
  F  F82  1  0.57088055  0.24674073  0.67064885  1
  F  F83  1  0.74194322  0.57398218  0.67196699  1
