# generated using pymatgen
data_H10PbC5(IN)4
_symmetry_space_group_name_H-M   'P 1'
_cell_length_a   12.50654543
_cell_length_b   12.25271151
_cell_length_c   10.90276031
_cell_angle_alpha   93.24230143
_cell_angle_beta   93.25575608
_cell_angle_gamma   88.98367490
_symmetry_Int_Tables_number   1
_chemical_formula_structural   H10PbC5(IN)4
_chemical_formula_sum   'H40 Pb4 C20 I16 N16'
_cell_volume   1665.18561926
_cell_formula_units_Z   4
loop_
 _symmetry_equiv_pos_site_id
 _symmetry_equiv_pos_as_xyz
  1  'x, y, z'
loop_
 _atom_site_type_symbol
 _atom_site_label
 _atom_site_symmetry_multiplicity
 _atom_site_fract_x
 _atom_site_fract_y
 _atom_site_fract_z
 _atom_site_occupancy
  H  H0  1  0.14232735  0.13949258  0.74210667  1
  H  H1  1  0.09361480  0.22436851  0.62213476  1
  H  H2  1  0.13800117  0.08827611  0.58572544  1
  H  H3  1  0.32482446  0.13486228  0.65936729  1
  H  H4  1  0.22518289  0.35332973  0.71819372  1
  H  H5  1  0.29642253  0.27217486  0.81177490  1
  H  H6  1  0.35844711  0.33909203  0.70542769  1
  H  H7  1  0.25741818  0.10011181  0.23135286  1
  H  H8  1  0.29211376  0.28345794  0.17984732  1
  H  H9  1  0.32217002  0.42779635  0.32782053  1
  H  H10  1  0.15617587  0.85035038  0.78008646  1
  H  H11  1  0.24886200  0.89870958  0.67695714  1
  H  H12  1  0.11313316  0.87242747  0.62535647  1
  H  H13  1  0.14347435  0.67174377  0.66199813  1
  H  H14  1  0.36675908  0.74644933  0.72224770  1
  H  H15  1  0.28591193  0.68730206  0.81442900  1
  H  H16  1  0.33756510  0.61467199  0.69542127  1
  H  H17  1  0.10613495  0.75613282  0.24576765  1
  H  H18  1  0.28498811  0.71431494  0.18620522  1
  H  H19  1  0.42500675  0.66483515  0.32642532  1
  H  H20  1  0.86214189  0.36155913  0.26343085  1
  H  H21  1  0.77864587  0.40744534  0.38413630  1
  H  H22  1  0.91238733  0.36099726  0.41944262  1
  H  H23  1  0.86615361  0.17202842  0.33919853  1
  H  H24  1  0.65665264  0.27944664  0.27479523  1
  H  H25  1  0.73561188  0.20046120  0.18684646  1
  H  H26  1  0.66176129  0.14460498  0.29115949  1
  H  H27  1  0.89505685  0.23519172  0.77017563  1
  H  H28  1  0.71287818  0.20307234  0.81676767  1
  H  H29  1  0.57601322  0.16643773  0.66535443  1
  H  H30  1  0.65460349  0.83583069  0.22244136  1
  H  H31  1  0.61482970  0.73595315  0.32440342  1
  H  H32  1  0.62805997  0.87618426  0.37684084  1
  H  H33  1  0.82682913  0.86368255  0.34524749  1
  H  H34  1  0.77177952  0.63377465  0.26899855  1
  H  H35  1  0.82966994  0.72555953  0.18964703  1
  H  H36  1  0.89766213  0.66838801  0.30795002  1
  H  H37  1  0.73085133  0.88763175  0.75617215  1
  H  H38  1  0.78325741  0.70707831  0.81564454  1
  H  H39  1  0.83955219  0.56801247  0.67565748  1
  Pb  Pb40  1  0.00974472  1.00060121  0.02559698  1
  Pb  Pb41  1  0.02555634  0.48003020  0.99077868  1
  Pb  Pb42  1  0.49654768  0.98204357  0.98835735  1
  Pb  Pb43  1  0.52978348  0.49235537  0.98690971  1
  C  C44  1  0.15252693  0.16081583  0.64726284  1
  C  C45  1  0.26660910  0.20010278  0.63499290  1
  C  C46  1  0.28054128  0.22647596  0.50381324  1
  C  C47  1  0.27465418  0.16210722  0.30497302  1
  C  C48  1  0.30592474  0.34724720  0.35935131  1
  C  C49  1  0.18048718  0.84504766  0.68488833  1
  C  C50  1  0.20959583  0.72720008  0.64643138  1
  C  C51  1  0.23127171  0.71718531  0.51221073  1
  C  C52  1  0.16726087  0.73479313  0.31596380  1
  C  C53  1  0.34681341  0.68675203  0.36141546  1
  C  C54  1  0.84125360  0.34816963  0.35761718  1
  C  C55  1  0.80237990  0.23140337  0.36489219  1
  C  C56  1  0.77580648  0.21301071  0.49470969  1
  C  C57  1  0.83569910  0.21762361  0.69493027  1
  C  C58  1  0.65549033  0.18439424  0.63602895  1
  C  C59  1  0.66113724  0.81057810  0.31744185  1
  C  C60  1  0.77827165  0.79092496  0.35771502  1
  C  C61  1  0.78628373  0.76614747  0.49133420  1
  C  C62  1  0.75785350  0.82754425  0.68682237  1
  C  C63  1  0.81659009  0.64747974  0.64097126  1
  I  I64  1  0.25080280  0.08113744  0.97095961  1
  I  I65  1  0.27778799  0.43706382  0.02070340  1
  I  I66  1  0.75296403  0.94226756  0.03428819  1
  I  I67  1  0.77149774  0.56777040  0.97848026  1
  I  I68  1  0.91665831  0.24589654  0.03171654  1
  I  I69  1  0.05594562  0.73831844  0.97961803  1
  I  I70  1  0.55832146  0.23349090  0.95960346  1
  I  I71  1  0.42327612  0.73733740  0.02699330  1
  I  I72  1  0.93814992  0.99602508  0.73644032  1
  I  I73  1  0.01954711  0.99212299  0.31423034  1
  I  I74  1  0.05194058  0.46452489  0.69693998  1
  I  I75  1  0.05251396  0.51655522  0.28390808  1
  I  I76  1  0.48734203  0.92868733  0.69500810  1
  I  I77  1  0.48606745  0.04124958  0.27765607  1
  I  I78  1  0.50576977  0.47930171  0.69147719  1
  I  I79  1  0.56568915  0.47865268  0.28316950  1
  N  N80  1  0.28906318  0.29669544  0.72230465  1
  N  N81  1  0.26638203  0.14186359  0.42243580  1
  N  N82  1  0.29035923  0.26575444  0.27178741  1
  N  N83  1  0.30211066  0.33037277  0.47759553  1
  N  N84  1  0.30496016  0.69042158  0.72353862  1
  N  N85  1  0.14916586  0.74259382  0.43525962  1
  N  N86  1  0.26765271  0.71333504  0.27836272  1
  N  N87  1  0.33066197  0.68496793  0.47960812  1
  N  N88  1  0.70861207  0.21174814  0.27482400  1
  N  N89  1  0.85753818  0.22746385  0.57826140  1
  N  N90  1  0.73308122  0.20251955  0.72542423  1
  N  N91  1  0.67442356  0.18753960  0.51829198  1
  N  N92  1  0.82309132  0.69951575  0.27763348  1
  N  N93  1  0.75473066  0.84748362  0.56804285  1
  N  N94  1  0.78579874  0.72640281  0.72402835  1
  N  N95  1  0.81967777  0.66504905  0.52304454  1
