# generated using pymatgen
data_H7PbC4I4N4F
_symmetry_space_group_name_H-M   'P 1'
_cell_length_a   12.22226116
_cell_length_b   12.17804381
_cell_length_c   10.48326125
_cell_angle_alpha   87.90486788
_cell_angle_beta   88.51419284
_cell_angle_gamma   91.21543809
_symmetry_Int_Tables_number   1
_chemical_formula_structural   H7PbC4I4N4F
_chemical_formula_sum   'H28 Pb4 C16 I16 N16 F4'
_cell_volume   1558.41156869
_cell_formula_units_Z   4
loop_
 _symmetry_equiv_pos_site_id
 _symmetry_equiv_pos_as_xyz
  1  'x, y, z'
loop_
 _atom_site_type_symbol
 _atom_site_label
 _atom_site_symmetry_multiplicity
 _atom_site_fract_x
 _atom_site_fract_y
 _atom_site_fract_z
 _atom_site_occupancy
  H  H0  1  0.32077487  0.15890815  0.72622079  1
  H  H1  1  0.18330252  0.15256590  0.73011476  1
  H  H2  1  0.24973452  0.22918271  0.83544755  1
  H  H3  1  0.32136872  0.35859371  0.67082592  1
  H  H4  1  0.17680296  0.35598580  0.67986238  1
  H  H5  1  0.24116684  0.44575759  0.43764141  1
  H  H6  1  0.24640644  0.20905287  0.17787829  1
  H  H7  1  0.15402166  0.68763183  0.72482609  1
  H  H8  1  0.16303173  0.82746656  0.72412294  1
  H  H9  1  0.23155230  0.75039883  0.83152058  1
  H  H10  1  0.35483300  0.67982178  0.67614876  1
  H  H11  1  0.35838070  0.82619711  0.66635007  1
  H  H12  1  0.44573541  0.74625778  0.43742328  1
  H  H13  1  0.21266930  0.74381088  0.17221522  1
  H  H14  1  0.83382816  0.17185608  0.27139099  1
  H  H15  1  0.84470897  0.31095695  0.27521171  1
  H  H16  1  0.76762402  0.25291965  0.16460175  1
  H  H17  1  0.63921803  0.17399660  0.32931158  1
  H  H18  1  0.64373347  0.32057044  0.32166498  1
  H  H19  1  0.55465949  0.25232307  0.56314774  1
  H  H20  1  0.79359444  0.25916823  0.82134257  1
  H  H21  1  0.81493799  0.84914962  0.27034069  1
  H  H22  1  0.67793258  0.84017611  0.26979525  1
  H  H23  1  0.75362118  0.77288396  0.16082526  1
  H  H24  1  0.82395728  0.64505931  0.31613145  1
  H  H25  1  0.67930095  0.64108854  0.32436819  1
  H  H26  1  0.75871258  0.55425767  0.55925178  1
  H  H27  1  0.75382669  0.79280188  0.81722701  1
  Pb  Pb28  1  0.00209970  0.99709808  0.01208350  1
  Pb  Pb29  1  0.00271325  0.50007406  0.01441208  1
  Pb  Pb30  1  0.50271122  0.00338280  0.00751196  1
  Pb  Pb31  1  0.50332295  0.50170241  0.01058514  1
  C  C32  1  0.24812257  0.30509399  0.65442542  1
  C  C33  1  0.24467506  0.27606331  0.51840550  1
  C  C34  1  0.24173262  0.35844212  0.41892645  1
  C  C35  1  0.24371509  0.14878267  0.36788737  1
  C  C36  1  0.30534339  0.75276283  0.65060028  1
  C  C37  1  0.27604811  0.75001967  0.51430871  1
  C  C38  1  0.35896277  0.74664466  0.41694469  1
  C  C39  1  0.15097694  0.74720508  0.36070887  1
  C  C40  1  0.69263577  0.24691564  0.34565757  1
  C  C41  1  0.72289910  0.24833881  0.48174573  1
  C  C42  1  0.64192005  0.25211952  0.58108319  1
  C  C43  1  0.85125008  0.25156334  0.63180533  1
  C  C44  1  0.75197410  0.69498116  0.34109980  1
  C  C45  1  0.75436746  0.72355328  0.47749127  1
  C  C46  1  0.75744212  0.64168453  0.57732748  1
  C  C47  1  0.75416157  0.85183030  0.62699044  1
  I  I48  1  0.25082833  0.92585475  0.01909032  1
  I  I49  1  0.25378267  0.57811422  0.01187442  1
  I  I50  1  0.75548551  0.06992465  0.97925301  1
  I  I51  1  0.75234112  0.42131833  0.98792948  1
  I  I52  1  0.07039346  0.25048143  1.00380541  1
  I  I53  1  0.92244721  0.74776429  0.99451063  1
  I  I54  1  0.41945619  0.25006210  0.01978500  1
  I  I55  1  0.57518289  0.75568798  0.97781853  1
  I  I56  1  0.04577262  0.99124409  0.70585293  1
  I  I57  1  0.94969532  0.00912621  0.31585322  1
  I  I58  1  0.02911118  0.52683827  0.70727615  1
  I  I59  1  0.96798037  0.46933036  0.32246253  1
  I  I60  1  0.46668850  0.02226603  0.70267703  1
  I  I61  1  0.53448754  0.97741665  0.31222983  1
  I  I62  1  0.49022132  0.50122129  0.70677190  1
  I  I63  1  0.50916591  0.49574498  0.31989091  1
  N  N64  1  0.25051986  0.20620745  0.74104512  1
  N  N65  1  0.24051920  0.33351448  0.29761432  1
  N  N66  1  0.24172279  0.22665396  0.27423406  1
  N  N67  1  0.24539840  0.16966698  0.48940561  1
  N  N68  1  0.20782526  0.75510639  0.73719234  1
  N  N69  1  0.33541364  0.74418781  0.29507201  1
  N  N70  1  0.22935251  0.74475894  0.26913510  1
  N  N71  1  0.17029391  0.75013034  0.48279846  1
  N  N72  1  0.79031288  0.24494764  0.25922257  1
  N  N73  1  0.66804773  0.25564628  0.70226832  1
  N  N74  1  0.77470129  0.25539186  0.72534720  1
  N  N75  1  0.82920606  0.24748671  0.51059640  1
  N  N76  1  0.74924215  0.79458570  0.25574158  1
  N  N77  1  0.75839728  0.66741129  0.69853366  1
  N  N78  1  0.75669352  0.77436991  0.72116065  1
  N  N79  1  0.75258183  0.83004925  0.50580383  1
  F  F80  1  0.24526442  0.04610536  0.33190334  1
  F  F81  1  0.04924153  0.74656325  0.32126694  1
  F  F82  1  0.95391980  0.25260157  0.66754672  1
  F  F83  1  0.75220262  0.95471379  0.66182073  1
