# generated using pymatgen
data_H10PbC5(IN)4
_symmetry_space_group_name_H-M   'P 1'
_cell_length_a   12.47955900
_cell_length_b   12.31573531
_cell_length_c   10.97287764
_cell_angle_alpha   92.15659970
_cell_angle_beta   92.55994402
_cell_angle_gamma   89.10024780
_symmetry_Int_Tables_number   1
_chemical_formula_structural   H10PbC5(IN)4
_chemical_formula_sum   'H40 Pb4 C20 I16 N16'
_cell_volume   1683.43337666
_cell_formula_units_Z   4
loop_
 _symmetry_equiv_pos_site_id
 _symmetry_equiv_pos_as_xyz
  1  'x, y, z'
loop_
 _atom_site_type_symbol
 _atom_site_label
 _atom_site_symmetry_multiplicity
 _atom_site_fract_x
 _atom_site_fract_y
 _atom_site_fract_z
 _atom_site_occupancy
  H  H0  1  0.16335727  0.12949955  0.75022943  1
  H  H1  1  0.10656626  0.22119661  0.64178562  1
  H  H2  1  0.15220963  0.08928911  0.59299342  1
  H  H3  1  0.34140436  0.14193677  0.66351274  1
  H  H4  1  0.23140364  0.35346531  0.72355764  1
  H  H5  1  0.29923796  0.27040618  0.81831075  1
  H  H6  1  0.36587070  0.34270132  0.71795595  1
  H  H7  1  0.28168161  0.06832014  0.43688741  1
  H  H8  1  0.27749996  0.30354337  0.18843860  1
  H  H9  1  0.30606902  0.44396154  0.33591069  1
  H  H10  1  0.14459373  0.84190012  0.76450848  1
  H  H11  1  0.23279273  0.89518045  0.65738745  1
  H  H12  1  0.10048383  0.85419272  0.61005296  1
  H  H13  1  0.15121876  0.65941810  0.65963854  1
  H  H14  1  0.36441416  0.75805090  0.72211483  1
  H  H15  1  0.28267322  0.69856788  0.81575280  1
  H  H16  1  0.34659491  0.62354891  0.70855353  1
  H  H17  1  0.07514798  0.72773253  0.43897853  1
  H  H18  1  0.30444468  0.72787221  0.18892574  1
  H  H19  1  0.44420015  0.69011668  0.33216593  1
  H  H20  1  0.86147925  0.33768603  0.24833390  1
  H  H21  1  0.77765439  0.39181274  0.36502413  1
  H  H22  1  0.90898761  0.34044441  0.40273589  1
  H  H23  1  0.85322618  0.15295959  0.33102256  1
  H  H24  1  0.64531087  0.26584480  0.27126983  1
  H  H25  1  0.72677847  0.19751251  0.17803497  1
  H  H26  1  0.65328748  0.13043034  0.27627328  1
  H  H27  1  0.93046875  0.20430075  0.55491671  1
  H  H28  1  0.70344257  0.22089693  0.80866419  1
  H  H29  1  0.56227966  0.18655023  0.66471460  1
  H  H30  1  0.65759252  0.84897782  0.24368336  1
  H  H31  1  0.61494502  0.75905684  0.35698548  1
  H  H32  1  0.65331162  0.89432748  0.39821562  1
  H  H33  1  0.84267546  0.85100051  0.33990801  1
  H  H34  1  0.75219469  0.63238499  0.27489300  1
  H  H35  1  0.80334407  0.72171198  0.18305943  1
  H  H36  1  0.88431588  0.65476205  0.28332764  1
  H  H37  1  0.79416047  0.92408588  0.56129979  1
  H  H38  1  0.78110318  0.69096293  0.81120991  1
  H  H39  1  0.81586768  0.54865592  0.66910550  1
  Pb  Pb40  1  0.99638080  0.00336600  0.04311705  1
  Pb  Pb41  1  0.02237405  0.48688674  0.98432848  1
  Pb  Pb42  1  0.48672441  0.99283464  0.98051034  1
  Pb  Pb43  1  0.52536971  0.49653859  0.99633276  1
  C  C44  1  0.16817680  0.15797875  0.65721391  1
  C  C45  1  0.27944786  0.20448488  0.64134232  1
  C  C46  1  0.28887334  0.23643504  0.51206365  1
  C  C47  1  0.28241460  0.15457733  0.41851568  1
  C  C48  1  0.29675768  0.36198576  0.36720848  1
  C  C49  1  0.17023906  0.83542481  0.67020047  1
  C  C50  1  0.21254928  0.72044985  0.64224116  1
  C  C51  1  0.24141359  0.71131733  0.51153682  1
  C  C52  1  0.15981143  0.72324244  0.41939856  1
  C  C53  1  0.36352573  0.70232107  0.36475607  1
  C  C54  1  0.83756540  0.32887003  0.34237588  1
  C  C55  1  0.79201755  0.21552870  0.35479705  1
  C  C56  1  0.76309596  0.20286517  0.48409105  1
  C  C57  1  0.84594275  0.20691042  0.57576756  1
  C  C58  1  0.64238914  0.19659878  0.63162940  1
  C  C59  1  0.67062002  0.82388251  0.33808440  1
  C  C60  1  0.78667676  0.78531272  0.35897360  1
  C  C61  1  0.80088270  0.75507508  0.48922717  1
  C  C62  1  0.79342641  0.83803410  0.58097858  1
  C  C63  1  0.80683466  0.63080901  0.63623183  1
  I  I64  1  0.25640346  0.08790400  0.97755542  1
  I  I65  1  0.27497339  0.43689693  0.02051124  1
  I  I66  1  0.76177986  0.92108357  0.04561488  1
  I  I67  1  0.76884606  0.56590272  0.97955875  1
  I  I68  1  0.90619516  0.23986187  0.02549586  1
  I  I69  1  0.07231340  0.73084018  0.96666093  1
  I  I70  1  0.56618459  0.23976281  0.96872394  1
  I  I71  1  0.42999460  0.74197662  0.02100213  1
  I  I72  1  0.95465319  0.00467142  0.76220431  1
  I  I73  1  0.01574182  0.99423325  0.35261396  1
  I  I74  1  0.04962103  0.45927145  0.68767218  1
  I  I75  1  0.03399807  0.51396586  0.27566431  1
  I  I76  1  0.47786473  0.94533963  0.68250048  1
  I  I77  1  0.48336077  0.02353053  0.26850757  1
  I  I78  1  0.50494998  0.48575697  0.69962498  1
  I  I79  1  0.56260811  0.48337959  0.28930762  1
  N  N80  1  0.29608336  0.29838552  0.73009058  1
  N  N81  1  0.27712245  0.17828065  0.30147294  1
  N  N82  1  0.28229501  0.28314524  0.28010674  1
  N  N83  1  0.29862336  0.34110184  0.48506428  1
  N  N84  1  0.30700940  0.69771884  0.72650261  1
  N  N85  1  0.18170559  0.72993625  0.30279092  1
  N  N86  1  0.28484154  0.72134376  0.28003610  1
  N  N87  1  0.34404587  0.69749700  0.48231135  1
  N  N88  1  0.69869050  0.20043567  0.26587248  1
  N  N89  1  0.82560231  0.21433721  0.69365979  1
  N  N90  1  0.72191747  0.21261576  0.71692939  1
  N  N91  1  0.66018950  0.19352446  0.51330286  1
  N  N92  1  0.80871624  0.69290776  0.27112636  1
  N  N93  1  0.78508328  0.81597741  0.69741930  1
  N  N94  1  0.78957275  0.71082207  0.72032580  1
  N  N95  1  0.81135593  0.65045720  0.51850938  1
