# generated using pymatgen
data_H7PbC3I4N5
_symmetry_space_group_name_H-M   'P 1'
_cell_length_a   12.05110609
_cell_length_b   12.07884821
_cell_length_c   10.36193797
_cell_angle_alpha   89.82895413
_cell_angle_beta   89.56499433
_cell_angle_gamma   90.53513254
_symmetry_Int_Tables_number   1
_chemical_formula_structural   H7PbC3I4N5
_chemical_formula_sum   'H28 Pb4 C12 I16 N20'
_cell_volume   1508.20346155
_cell_formula_units_Z   4
loop_
 _symmetry_equiv_pos_site_id
 _symmetry_equiv_pos_as_xyz
  1  'x, y, z'
loop_
 _atom_site_type_symbol
 _atom_site_label
 _atom_site_symmetry_multiplicity
 _atom_site_fract_x
 _atom_site_fract_y
 _atom_site_fract_z
 _atom_site_occupancy
  H  H0  1  0.24241509  0.30292594  0.83032919  1
  H  H1  1  0.31832445  0.37633113  0.72123010  1
  H  H2  1  0.17776726  0.37557221  0.71482619  1
  H  H3  1  0.17794834  0.17177652  0.67561751  1
  H  H4  1  0.32484775  0.17642230  0.67656437  1
  H  H5  1  0.25249860  0.08252788  0.43490319  1
  H  H6  1  0.24284588  0.33170365  0.17455916  1
  H  H7  1  0.30239035  0.75278377  0.83189863  1
  H  H8  1  0.37261236  0.67672603  0.72117868  1
  H  H9  1  0.37762939  0.81775498  0.71703770  1
  H  H10  1  0.17510021  0.82393856  0.67730574  1
  H  H11  1  0.17215041  0.67702268  0.67764753  1
  H  H12  1  0.08220272  0.74856767  0.43709414  1
  H  H13  1  0.33206907  0.75186262  0.17570818  1
  H  H14  1  0.69879326  0.24445432  0.16755038  1
  H  H15  1  0.62349708  0.17982294  0.28315061  1
  H  H16  1  0.62818272  0.32081242  0.27772673  1
  H  H17  1  0.82771650  0.32241334  0.32190031  1
  H  H18  1  0.82651130  0.17545000  0.32233284  1
  H  H19  1  0.91860399  0.24792893  0.56253942  1
  H  H20  1  0.66882764  0.24325686  0.82381619  1
  H  H21  1  0.75866179  0.69936024  0.16572136  1
  H  H22  1  0.82140300  0.62637862  0.28282279  1
  H  H23  1  0.68112240  0.62594948  0.27433536  1
  H  H24  1  0.67471010  0.82558203  0.31937745  1
  H  H25  1  0.82172655  0.82987278  0.32103466  1
  H  H26  1  0.74534318  0.91837324  0.56206348  1
  H  H27  1  0.75070492  0.66814408  0.82083479  1
  Pb  Pb28  1  0.00643429  0.00382608  0.00873539  1
  Pb  Pb29  1  0.99948614  0.50858891  0.00570160  1
  Pb  Pb30  1  0.49914601  0.00483115  0.00327454  1
  Pb  Pb31  1  0.50562606  0.50165597  0.00251158  1
  C  C32  1  0.25077042  0.22560451  0.65190426  1
  C  C33  1  0.25156959  0.25361620  0.51184400  1
  C  C34  1  0.25147000  0.17114415  0.41511753  1
  C  C35  1  0.22519783  0.74999813  0.65349556  1
  C  C36  1  0.25375575  0.74939269  0.51343406  1
  C  C37  1  0.17110365  0.74900338  0.41711708  1
  C  C38  1  0.77566725  0.24881473  0.34595751  1
  C  C39  1  0.74708670  0.24884793  0.48615906  1
  C  C40  1  0.82971541  0.24769679  0.58243275  1
  C  C41  1  0.74869001  0.77636465  0.34410477  1
  C  C42  1  0.74741555  0.74775866  0.48410316  1
  C  C43  1  0.74611737  0.82963441  0.58129788  1
  I  I44  1  0.25121865  0.91097312  0.00413953  1
  I  I45  1  0.25342979  0.56797596  0.01782815  1
  I  I46  1  0.75138270  0.07788543  0.00050236  1
  I  I47  1  0.75161967  0.42155380  0.98355065  1
  I  I48  1  0.07767127  0.25601446  0.01059904  1
  I  I49  1  0.91467081  0.75308163  0.98658795  1
  I  I50  1  0.42337813  0.25206604  0.99497499  1
  I  I51  1  0.57175932  0.75280473  0.00500233  1
  I  I52  1  0.01264858  0.00630163  0.70028364  1
  I  I53  1  0.99354122  0.99529557  0.31972525  1
  I  I54  1  0.01736071  0.49879494  0.69595537  1
  I  I55  1  0.98105713  0.50645998  0.31538947  1
  I  I56  1  0.49106959  0.98993766  0.69376563  1
  I  I57  1  0.50605811  0.01301682  0.31344066  1
  I  I58  1  0.48024186  0.50621458  0.69317447  1
  I  I59  1  0.52419221  0.49282774  0.31110343  1
  N  N60  1  0.24744821  0.32601724  0.73375665  1
  N  N61  1  0.24852755  0.20055364  0.29155513  1
  N  N62  1  0.24814676  0.30795133  0.27063062  1
  N  N63  1  0.25059559  0.39018702  0.35568317  1
  N  N64  1  0.25144446  0.36132383  0.47843749  1
  N  N65  1  0.32560995  0.74879702  0.73523627  1
  N  N66  1  0.20067814  0.74888370  0.29341891  1
  N  N67  1  0.30837931  0.74935873  0.27212849  1
  N  N68  1  0.39072064  0.74944789  0.35671630  1
  N  N69  1  0.36168268  0.74899858  0.47979401  1
  N  N70  1  0.67534507  0.24881689  0.26412825  1
  N  N71  1  0.80010950  0.24586651  0.70617662  1
  N  N72  1  0.69252858  0.24599139  0.72751926  1
  N  N73  1  0.61002561  0.24830512  0.64286181  1
  N  N74  1  0.63914407  0.24984063  0.51984272  1
  N  N75  1  0.75215391  0.67608341  0.26222095  1
  N  N76  1  0.74680043  0.79964710  0.70472163  1
  N  N77  1  0.74759584  0.69224461  0.72490468  1
  N  N78  1  0.74772408  0.61024111  0.63920654  1
  N  N79  1  0.74813339  0.63979473  0.51674014  1
