# generated using pymatgen
data_H10PbC5(IN)4
_symmetry_space_group_name_H-M   'P 1'
_cell_length_a   12.44715484
_cell_length_b   12.29341183
_cell_length_c   11.07610563
_cell_angle_alpha   91.82400969
_cell_angle_beta   91.56611542
_cell_angle_gamma   89.39508171
_symmetry_Int_Tables_number   1
_chemical_formula_structural   H10PbC5(IN)4
_chemical_formula_sum   'H40 Pb4 C20 I16 N16'
_cell_volume   1693.27238994
_cell_formula_units_Z   4
loop_
 _symmetry_equiv_pos_site_id
 _symmetry_equiv_pos_as_xyz
  1  'x, y, z'
loop_
 _atom_site_type_symbol
 _atom_site_label
 _atom_site_symmetry_multiplicity
 _atom_site_fract_x
 _atom_site_fract_y
 _atom_site_fract_z
 _atom_site_occupancy
  H  H0  1  0.34526976  0.17299069  0.76099445  1
  H  H1  1  0.35587067  0.12731039  0.60852208  1
  H  H2  1  0.39238245  0.26301502  0.64992264  1
  H  H3  1  0.16277861  0.16989271  0.66355698  1
  H  H4  1  0.11997786  0.36743605  0.70886161  1
  H  H5  1  0.20076532  0.30918258  0.81287697  1
  H  H6  1  0.25281160  0.39140006  0.71389260  1
  H  H7  1  0.20928231  0.09485319  0.43869085  1
  H  H8  1  0.21135079  0.16380944  0.22197872  1
  H  H9  1  0.20770132  0.35634251  0.20125988  1
  H  H10  1  0.15844257  0.66192793  0.75313317  1
  H  H11  1  0.10802479  0.65925353  0.60177410  1
  H  H12  1  0.23972673  0.60778382  0.63426017  1
  H  H13  1  0.16698359  0.84764167  0.66610737  1
  H  H14  1  0.36792971  0.86838473  0.71508835  1
  H  H15  1  0.29537575  0.80323167  0.81634249  1
  H  H16  1  0.37340827  0.73199066  0.72243126  1
  H  H17  1  0.09451434  0.80163163  0.43846955  1
  H  H18  1  0.16687250  0.79356559  0.22186664  1
  H  H19  1  0.35701885  0.78743763  0.20477395  1
  H  H20  1  0.83234271  0.15626856  0.23362171  1
  H  H21  1  0.87871869  0.14476121  0.38528829  1
  H  H22  1  0.74579067  0.10250221  0.34325151  1
  H  H23  1  0.82594776  0.33925226  0.33584815  1
  H  H24  1  0.62844898  0.37285624  0.29796744  1
  H  H25  1  0.68771857  0.29741989  0.18865047  1
  H  H26  1  0.61115437  0.23777724  0.28825453  1
  H  H27  1  0.90413377  0.28769598  0.55951164  1
  H  H28  1  0.83656893  0.29098172  0.77760799  1
  H  H29  1  0.64681265  0.29207639  0.79945643  1
  H  H30  1  0.83897156  0.84268604  0.24652751  1
  H  H31  1  0.84759361  0.88948806  0.39969476  1
  H  H32  1  0.89079447  0.75436756  0.35962239  1
  H  H33  1  0.65679918  0.83855060  0.33745537  1
  H  H34  1  0.62570942  0.64025477  0.28669917  1
  H  H35  1  0.69730975  0.70619654  0.18475983  1
  H  H36  1  0.76068474  0.62354516  0.28081522  1
  H  H37  1  0.71028398  0.90821730  0.56654293  1
  H  H38  1  0.71155825  0.83296018  0.78070416  1
  H  H39  1  0.70802738  0.63997920  0.79459676  1
  Pb  Pb40  1  0.00783013  1.00185113  0.96967138  1
  Pb  Pb41  1  0.97500369  0.51472696  0.01229424  1
  Pb  Pb42  1  0.51453999  0.01091634  0.01602530  1
  Pb  Pb43  1  0.46808750  0.50415795  0.00547264  1
  C  C44  1  0.33571048  0.19768235  0.66694811  1
  C  C45  1  0.21982977  0.23452008  0.64217109  1
  C  C46  1  0.20696523  0.26215644  0.51175374  1
  C  C47  1  0.20870248  0.18134889  0.42087930  1
  C  C48  1  0.20878903  0.21672076  0.30312209  1
  C  C49  1  0.18043541  0.67086550  0.65873503  1
  C  C50  1  0.22702321  0.78396311  0.64278968  1
  C  C51  1  0.25822826  0.79429838  0.51383626  1
  C  C52  1  0.18020110  0.79761714  0.42163466  1
  C  C53  1  0.21727308  0.79532265  0.30436219  1
  C  C54  1  0.80803906  0.16294186  0.32807608  1
  C  C55  1  0.76561324  0.27770102  0.35707051  1
  C  C56  1  0.73901647  0.28924278  0.48808227  1
  C  C57  1  0.81889839  0.28924530  0.57825997  1
  C  C58  1  0.78438200  0.29212561  0.69654781  1
  C  C59  1  0.83109222  0.81837817  0.34029337  1
  C  C60  1  0.71780391  0.77568092  0.35871304  1
  C  C61  1  0.70758520  0.74316278  0.48748272  1
  C  C62  1  0.70921770  0.82117292  0.58117538  1
  C  C63  1  0.70892445  0.78233779  0.69758866  1
  I  I64  1  0.25012813  0.07563949  0.96719071  1
  I  I65  1  0.22434529  0.43555203  0.01343243  1
  I  I66  1  0.75106883  0.91503367  0.02154694  1
  I  I67  1  0.72180592  0.55585363  0.98601341  1
  I  I68  1  0.92868584  0.26194436  0.01647188  1
  I  I69  1  0.09064817  0.75762367  0.97990377  1
  I  I70  1  0.56606067  0.26084371  0.98669835  1
  I  I71  1  0.44065490  0.76143930  0.01826892  1
  I  I72  1  0.98862806  0.01117558  0.67445902  1
  I  I73  1  0.04358314  0.99949184  0.25983302  1
  I  I74  1  0.96347602  0.49420937  0.71872839  1
  I  I75  1  0.94674126  0.52450877  0.30112873  1
  I  I76  1  0.52683757  0.98921223  0.72372559  1
  I  I77  1  0.50017744  0.05762441  0.30344479  1
  I  I78  1  0.44243724  0.52022896  0.71998939  1
  I  I79  1  0.47642820  0.51063225  0.30019921  1
  N  N80  1  0.19603909  0.33086460  0.72308356  1
  N  N81  1  0.20571472  0.32417013  0.28801705  1
  N  N82  1  0.19989294  0.40166648  0.37616254  1
  N  N83  1  0.20082830  0.36976483  0.48661763  1
  N  N84  1  0.32135241  0.79892270  0.72827608  1
  N  N85  1  0.32374785  0.79187533  0.29113521  1
  N  N86  1  0.39868761  0.79357355  0.38099492  1
  N  N87  1  0.36529366  0.79410469  0.49081892  1
  N  N88  1  0.66826194  0.29884129  0.27908779  1
  N  N89  1  0.67844580  0.29400914  0.71269844  1
  N  N90  1  0.60167292  0.29654723  0.62481140  1
  N  N91  1  0.63278995  0.29470209  0.51428437  1
  N  N92  1  0.69819884  0.68105171  0.27311181  1
  N  N93  1  0.70664563  0.67456187  0.70902163  1
  N  N94  1  0.70188220  0.59963676  0.61763159  1
  N  N95  1  0.70270996  0.63471914  0.50854720  1
