# generated using pymatgen
data_H7PbC4I4N4F
_symmetry_space_group_name_H-M   'P 1'
_cell_length_a   12.25890785
_cell_length_b   12.20872641
_cell_length_c   10.41497225
_cell_angle_alpha   88.14912023
_cell_angle_beta   88.29700940
_cell_angle_gamma   92.28418424
_symmetry_Int_Tables_number   1
_chemical_formula_structural   H7PbC4I4N4F
_chemical_formula_sum   'H28 Pb4 C16 I16 N16 F4'
_cell_volume   1555.96204189
_cell_formula_units_Z   4
loop_
 _symmetry_equiv_pos_site_id
 _symmetry_equiv_pos_as_xyz
  1  'x, y, z'
loop_
 _atom_site_type_symbol
 _atom_site_label
 _atom_site_symmetry_multiplicity
 _atom_site_fract_x
 _atom_site_fract_y
 _atom_site_fract_z
 _atom_site_occupancy
  H  H0  1  0.24069819  0.30025537  0.83587895  1
  H  H1  1  0.18119943  0.37294312  0.71969973  1
  H  H2  1  0.31922259  0.37594665  0.72661076  1
  H  H3  1  0.17889996  0.17206333  0.68516388  1
  H  H4  1  0.32395978  0.17960231  0.68421050  1
  H  H5  1  0.25694950  0.08583431  0.45225791  1
  H  H6  1  0.24719713  0.34861187  0.18080511  1
  H  H7  1  0.30122091  0.75227963  0.83186013  1
  H  H8  1  0.37888032  0.81653160  0.71513556  1
  H  H9  1  0.36941105  0.67693316  0.72350887  1
  H  H10  1  0.17991374  0.82187924  0.67954315  1
  H  H11  1  0.17382887  0.67610852  0.68228506  1
  H  H12  1  0.08738708  0.75194908  0.44677392  1
  H  H13  1  0.35109388  0.74777856  0.17782109  1
  H  H14  1  0.69943609  0.24667321  0.16731348  1
  H  H15  1  0.63240555  0.32350410  0.27584952  1
  H  H16  1  0.62173885  0.18410736  0.28477701  1
  H  H17  1  0.82774160  0.32290023  0.31735029  1
  H  H18  1  0.82062236  0.17700156  0.31997637  1
  H  H19  1  0.91292125  0.24908361  0.55414824  1
  H  H20  1  0.64633830  0.25077308  0.82057117  1
  H  H21  1  0.75864993  0.69983090  0.16372314  1
  H  H22  1  0.68273313  0.62394161  0.27464160  1
  H  H23  1  0.82066507  0.62865209  0.27985522  1
  H  H24  1  0.67605978  0.82069701  0.31490102  1
  H  H25  1  0.82112167  0.82923132  0.31454567  1
  H  H26  1  0.74478099  0.91502895  0.54779282  1
  H  H27  1  0.75019064  0.65060089  0.81866802  1
  Pb  Pb28  1  0.99556298  0.00002475  0.00185566  1
  Pb  Pb29  1  0.99600797  0.49647165  0.00290166  1
  Pb  Pb30  1  0.49540858  0.99616897  0.00303493  1
  Pb  Pb31  1  0.49458958  0.49849863  0.00648623  1
  C  C32  1  0.25176312  0.22643684  0.65983962  1
  C  C33  1  0.25308501  0.25492744  0.51918484  1
  C  C34  1  0.25562471  0.17314370  0.42867733  1
  C  C35  1  0.25614797  0.21069587  0.30178209  1
  C  C36  1  0.22709679  0.74952309  0.65609695  1
  C  C37  1  0.25564410  0.75014993  0.51549147  1
  C  C38  1  0.17453196  0.75122256  0.42437338  1
  C  C39  1  0.21230451  0.75080777  0.29780351  1
  C  C40  1  0.77404215  0.24978260  0.34328034  1
  C  C41  1  0.74510280  0.24938761  0.48384744  1
  C  C42  1  0.82562431  0.24915849  0.57571261  1
  C  C43  1  0.78684285  0.24970547  0.70201553  1
  C  C44  1  0.74856849  0.77451199  0.33963375  1
  C  C45  1  0.74701432  0.74602895  0.48044611  1
  C  C46  1  0.74542276  0.82762348  0.57111412  1
  C  C47  1  0.74562766  0.78985760  0.69797969  1
  I  I48  1  0.24583383  0.93071514  0.96877949  1
  I  I49  1  0.24920618  0.56079082  0.01927405  1
  I  I50  1  0.74841193  0.06984302  0.02904682  1
  I  I51  1  0.74255649  0.44779461  0.97155980  1
  I  I52  1  0.07803058  0.25276683  0.01851196  1
  I  I53  1  0.93104000  0.74509724  0.97640004  1
  I  I54  1  0.44814057  0.24585255  0.96246484  1
  I  I55  1  0.56044485  0.74851838  0.02901539  1
  I  I56  1  0.00112396  0.02076000  0.69122464  1
  I  I57  1  0.99910798  0.98151238  0.31185931  1
  I  I58  1  0.02599323  0.49200016  0.69410599  1
  I  I59  1  0.97345496  0.50727652  0.31149635  1
  I  I60  1  0.50565833  0.97981585  0.69342369  1
  I  I61  1  0.49537026  0.01967818  0.31271187  1
  I  I62  1  0.47602395  0.51528581  0.69743076  1
  I  I63  1  0.52605686  0.48487526  0.31285150  1
  N  N64  1  0.24863880  0.32470997  0.73957273  1
  N  N65  1  0.25206408  0.31839391  0.27443044  1
  N  N66  1  0.24912356  0.39611774  0.36478004  1
  N  N67  1  0.25002984  0.36314260  0.48393674  1
  N  N68  1  0.32510197  0.74831007  0.73584692  1
  N  N69  1  0.31977436  0.74920561  0.27117190  1
  N  N70  1  0.39690094  0.74852787  0.36219068  1
  N  N71  1  0.36354715  0.74867384  0.48114339  1
  N  N72  1  0.67601308  0.25177116  0.26336833  1
  N  N73  1  0.67922459  0.25025468  0.72756602  1
  N  N74  1  0.60286278  0.25030545  0.63584687  1
  N  N75  1  0.63698559  0.25032133  0.51718148  1
  N  N76  1  0.75258243  0.67598685  0.26019767  1
  N  N77  1  0.74779163  0.68202642  0.72510254  1
  N  N78  1  0.74937690  0.60451181  0.63455132  1
  N  N79  1  0.74918888  0.63772775  0.51542412  1
  F  F80  1  0.26048478  0.14511844  0.20474168  1
  F  F81  1  0.14686855  0.75166566  0.20073969  1
  F  F82  1  0.85153655  0.25009628  0.79989593  1
  F  F83  1  0.74421561  0.85563340  0.79492958  1
