# generated using pymatgen
data_H10PbC6I4N3F
_symmetry_space_group_name_H-M   'P 1'
_cell_length_a   12.56454774
_cell_length_b   12.28609888
_cell_length_c   11.10623375
_cell_angle_alpha   88.39728415
_cell_angle_beta   88.09411245
_cell_angle_gamma   89.00889831
_symmetry_Int_Tables_number   1
_chemical_formula_structural   H10PbC6I4N3F
_chemical_formula_sum   'H40 Pb4 C24 I16 N12 F4'
_cell_volume   1712.61262040
_cell_formula_units_Z   4
loop_
 _symmetry_equiv_pos_site_id
 _symmetry_equiv_pos_as_xyz
  1  'x, y, z'
loop_
 _atom_site_type_symbol
 _atom_site_label
 _atom_site_symmetry_multiplicity
 _atom_site_fract_x
 _atom_site_fract_y
 _atom_site_fract_z
 _atom_site_occupancy
  H  H0  1  0.33876727  0.35818250  0.75765098  1
  H  H1  1  0.35193233  0.40318987  0.60492012  1
  H  H2  1  0.39115348  0.26780032  0.64644393  1
  H  H3  1  0.16106293  0.35674901  0.66679027  1
  H  H4  1  0.19821314  0.22101941  0.81498531  1
  H  H5  1  0.26359483  0.14010282  0.71827869  1
  H  H6  1  0.13034453  0.15487775  0.71119353  1
  H  H7  1  0.19192474  0.05032405  0.34279287  1
  H  H8  1  0.21065197  0.18417645  0.19186695  1
  H  H9  1  0.22845271  0.37399556  0.22706007  1
  H  H10  1  0.34073322  0.65220304  0.76840579  1
  H  H11  1  0.38840093  0.63770261  0.61803901  1
  H  H12  1  0.25393808  0.60365642  0.65740512  1
  H  H13  1  0.34647787  0.83482559  0.66539343  1
  H  H14  1  0.20697971  0.80254614  0.81127072  1
  H  H15  1  0.12832490  0.74755546  0.71206927  1
  H  H16  1  0.15229458  0.88080621  0.70197305  1
  H  H17  1  0.05401737  0.80726880  0.33643474  1
  H  H18  1  0.18849316  0.78491333  0.18937066  1
  H  H19  1  0.37386562  0.76844746  0.22921707  1
  H  H20  1  0.64835825  0.15624961  0.24497212  1
  H  H21  1  0.59913759  0.15054575  0.39604060  1
  H  H22  1  0.73264213  0.10638165  0.36164442  1
  H  H23  1  0.64626769  0.34209280  0.33167861  1
  H  H24  1  0.77664072  0.30261754  0.18253535  1
  H  H25  1  0.85779760  0.23788781  0.27731236  1
  H  H26  1  0.84423554  0.37280472  0.28275179  1
  H  H27  1  0.94547323  0.31249785  0.65521033  1
  H  H28  1  0.81435511  0.29190852  0.80603224  1
  H  H29  1  0.62807122  0.27814828  0.77112812  1
  H  H30  1  0.84248088  0.66536820  0.23428872  1
  H  H31  1  0.85724698  0.61801205  0.38460610  1
  H  H32  1  0.88297362  0.75706285  0.34666963  1
  H  H33  1  0.66281512  0.64964643  0.33726312  1
  H  H34  1  0.68973012  0.79065299  0.18934844  1
  H  H35  1  0.73638829  0.87627959  0.28747824  1
  H  H36  1  0.60773463  0.84468109  0.29567691  1
  H  H37  1  0.68234221  0.95437009  0.66475581  1
  H  H38  1  0.70910109  0.81852694  0.81167081  1
  H  H39  1  0.73501703  0.62942904  0.77148257  1
  Pb  Pb40  1  0.97229973  0.00450335  0.99467137  1
  Pb  Pb41  1  0.00758995  0.51221764  0.98333150  1
  Pb  Pb42  1  0.47667198  0.01625252  0.98595072  1
  Pb  Pb43  1  0.50067910  0.50268462  0.03445741  1
  C  C44  1  0.33289450  0.33322143  0.66419135  1
  C  C45  1  0.22077143  0.29296417  0.64360970  1
  C  C46  1  0.21117344  0.26307196  0.51403339  1
  C  C47  1  0.20035633  0.13383548  0.37038443  1
  C  C48  1  0.21785986  0.31703295  0.30335922  1
  C  C49  1  0.21788468  0.34430436  0.42382784  1
  C  C50  1  0.31845825  0.65996373  0.67390595  1
  C  C51  1  0.28375949  0.77703617  0.64422338  1
  C  C52  1  0.25908127  0.78755540  0.51312299  1
  C  C53  1  0.13546993  0.79791101  0.36603331  1
  C  C54  1  0.31654349  0.77891139  0.30401358  1
  C  C55  1  0.34038884  0.77890465  0.42519496  1
  C  C56  1  0.66997089  0.16608178  0.33883419  1
  C  C57  1  0.70895427  0.28165231  0.35523754  1
  C  C58  1  0.73818222  0.29458739  0.48405629  1
  C  C59  1  0.86382672  0.30442362  0.62756230  1
  C  C60  1  0.68398264  0.28998959  0.69494803  1
  C  C61  1  0.65832350  0.29028916  0.57436685  1
  C  C62  1  0.83212451  0.68791791  0.32880695  1
  C  C63  1  0.71577278  0.71721177  0.35774848  1
  C  C64  1  0.70497977  0.74369505  0.48873718  1
  C  C65  1  0.69252730  0.87096127  0.63537153  1
  C  C66  1  0.72025522  0.68703052  0.69741916  1
  C  C67  1  0.71897847  0.66156586  0.57647905  1
  I  I68  1  0.22238927  0.06554770  0.01414840  1
  I  I69  1  0.24237329  0.42016651  0.97739357  1
  I  I70  1  0.72737304  0.93234124  0.98641662  1
  I  I71  1  0.74044492  0.57654587  0.03762987  1
  I  I72  1  0.93156124  0.26236710  0.97481530  1
  I  I73  1  0.07455727  0.76063236  0.01659170  1
  I  I74  1  0.58760455  0.25890549  0.02377710  1
  I  I75  1  0.42696205  0.76564992  0.97646435  1
  I  I76  1  0.98788924  0.01557138  0.70009700  1
  I  I77  1  0.94019919  0.01743383  0.28215703  1
  I  I78  1  0.00607310  0.56167407  0.69569903  1
  I  I79  1  0.01363539  0.47691050  0.26877395  1
  I  I80  1  0.44900041  0.03501215  0.69736573  1
  I  I81  1  0.45656132  0.99623121  0.27263942  1
  I  I82  1  0.54331981  0.50175710  0.75233701  1
  I  I83  1  0.47885861  0.51237946  0.32148835  1
  N  N84  1  0.20073589  0.19676545  0.72627439  1
  N  N85  1  0.20188747  0.15765804  0.48527650  1
  N  N86  1  0.20961921  0.21025818  0.28076326  1
  N  N87  1  0.18764024  0.80492655  0.72119040  1
  N  N88  1  0.15651529  0.79834952  0.48124758  1
  N  N89  1  0.21232614  0.78732958  0.27861173  1
  N  N90  1  0.80212368  0.30106171  0.27040689  1
  N  N91  1  0.84131406  0.30279653  0.51260126  1
  N  N92  1  0.78877150  0.29581065  0.71721209  1
  N  N93  1  0.68434671  0.81261190  0.27902478  1
  N  N94  1  0.69192684  0.84857309  0.52006339  1
  N  N95  1  0.70652193  0.79339289  0.72250405  1
  F  F96  1  0.22398251  0.44913310  0.45298915  1
  F  F97  1  0.44262005  0.77119965  0.45722257  1
  F  F98  1  0.55594023  0.28507040  0.54496159  1
  F  F99  1  0.73369971  0.55768616  0.54386922  1
