# generated using pymatgen
data_H7PbC4I4N4F
_symmetry_space_group_name_H-M   'P 1'
_cell_length_a   12.14915925
_cell_length_b   12.08133506
_cell_length_c   10.55904372
_cell_angle_alpha   88.15567182
_cell_angle_beta   88.42090760
_cell_angle_gamma   88.02931282
_symmetry_Int_Tables_number   1
_chemical_formula_structural   H7PbC4I4N4F
_chemical_formula_sum   'H28 Pb4 C16 I16 N16 F4'
_cell_volume   1547.57410258
_cell_formula_units_Z   4
loop_
 _symmetry_equiv_pos_site_id
 _symmetry_equiv_pos_as_xyz
  1  'x, y, z'
loop_
 _atom_site_type_symbol
 _atom_site_label
 _atom_site_symmetry_multiplicity
 _atom_site_fract_x
 _atom_site_fract_y
 _atom_site_fract_z
 _atom_site_occupancy
  H  H0  1  0.37202089  0.22605356  0.74457859  1
  H  H1  1  0.32492276  0.35862762  0.72195985  1
  H  H2  1  0.26572831  0.27540710  0.83363266  1
  H  H3  1  0.21320351  0.14508644  0.67914070  1
  H  H4  1  0.14044435  0.27602880  0.67517096  1
  H  H5  1  0.24820134  0.07425370  0.46914353  1
  H  H6  1  0.28807772  0.28598415  0.16878418  1
  H  H7  1  0.22698393  0.63450565  0.75546704  1
  H  H8  1  0.35443862  0.67906854  0.72496018  1
  H  H9  1  0.27200987  0.74225626  0.83537336  1
  H  H10  1  0.13424449  0.79202453  0.67713753  1
  H  H11  1  0.25771708  0.86769620  0.66899207  1
  H  H12  1  0.06715090  0.74140178  0.47415954  1
  H  H13  1  0.27737431  0.70613178  0.17491332  1
  H  H14  1  0.76390900  0.12845672  0.25822332  1
  H  H15  1  0.63785664  0.18871897  0.27840300  1
  H  H16  1  0.72486777  0.23907181  0.16592418  1
  H  H17  1  0.85968118  0.28218661  0.32127113  1
  H  H18  1  0.73657579  0.36648678  0.32128933  1
  H  H19  1  0.92537357  0.25562199  0.53472153  1
  H  H20  1  0.71113383  0.21990640  0.83058926  1
  H  H21  1  0.85597649  0.77354320  0.24450138  1
  H  H22  1  0.81950880  0.64190716  0.27501670  1
  H  H23  1  0.75213439  0.72245426  0.16566615  1
  H  H24  1  0.69346487  0.85648978  0.32229412  1
  H  H25  1  0.62850443  0.72590988  0.33423582  1
  H  H26  1  0.74196171  0.93131638  0.52099048  1
  H  H27  1  0.80206209  0.72826548  0.82469218  1
  Pb  Pb28  1  0.99025972  0.00598688  0.98255193  1
  Pb  Pb29  1  1.00711106  0.48488435  1.00032425  1
  Pb  Pb30  1  0.47504629  0.99256903  0.00732568  1
  Pb  Pb31  1  0.52075246  0.50910076  0.00476663  1
  C  C32  1  0.22037682  0.23353640  0.65443662  1
  C  C33  1  0.25023473  0.24850010  0.51665417  1
  C  C34  1  0.25515946  0.15964407  0.43424144  1
  C  C35  1  0.26741028  0.35127019  0.45501728  1
  C  C36  1  0.22268264  0.78626638  0.65351609  1
  C  C37  1  0.24032939  0.75621317  0.51792973  1
  C  C38  1  0.15206118  0.74058359  0.43820840  1
  C  C39  1  0.34350828  0.75092771  0.45543045  1
  C  C40  1  0.77115303  0.28269439  0.34451021  1
  C  C41  1  0.75259325  0.25762455  0.48286924  1
  C  C42  1  0.83980468  0.25119020  0.56754724  1
  C  C43  1  0.64875989  0.24949068  0.54303725  1
  C  C44  1  0.70614531  0.76822204  0.34762844  1
  C  C45  1  0.73904733  0.75523535  0.48301082  1
  C  C46  1  0.74944149  0.84676254  0.55961852  1
  C  C47  1  0.75378344  0.65308480  0.54824208  1
  I  I48  1  0.23827000  0.89355344  0.00651638  1
  I  I49  1  0.26098164  0.54487246  0.03063229  1
  I  I50  1  0.73444177  0.04990680  0.97252034  1
  I  I51  1  0.76501690  0.39795301  0.99487299  1
  I  I52  1  0.11019059  0.23693157  0.00247162  1
  I  I53  1  0.94927409  0.74471204  0.97543689  1
  I  I54  1  0.45824681  0.25340945  0.01749693  1
  I  I55  1  0.60039462  0.75281956  0.99585863  1
  I  I56  1  0.00602083  0.01040744  0.68343910  1
  I  I57  1  0.92757191  0.98577876  0.29887466  1
  I  I58  1  0.05055700  0.51461465  0.69877564  1
  I  I59  1  0.98614065  0.49604795  0.30580777  1
  I  I60  1  0.44731300  0.01498165  0.70432859  1
  I  I61  1  0.50091166  0.00839336  0.31122766  1
  I  I62  1  0.49297774  0.51227830  0.69786847  1
  I  I63  1  0.53511420  0.50266602  0.30051437  1
  N  N64  1  0.30145006  0.27780046  0.74225245  1
  N  N65  1  0.26736708  0.17307336  0.30821648  1
  N  N66  1  0.27621532  0.27569639  0.26635129  1
  N  N67  1  0.28093492  0.36661524  0.33115211  1
  N  N68  1  0.27345895  0.70570209  0.74685068  1
  N  N69  1  0.16541674  0.72437538  0.31404676  1
  N  N70  1  0.26753838  0.72365023  0.27071646  1
  N  N71  1  0.35905450  0.73421036  0.33266386  1
  N  N72  1  0.72005056  0.20477160  0.25799550  1
  N  N73  1  0.82465819  0.24021485  0.69317316  1
  N  N74  1  0.72201428  0.23535307  0.73334865  1
  N  N75  1  0.63163969  0.23762083  0.66692385  1
  N  N76  1  0.78891224  0.72227088  0.25414010  1
  N  N77  1  0.76954273  0.83703373  0.68360508  1
  N  N78  1  0.77903922  0.73529548  0.72973324  1
  N  N79  1  0.77467529  0.64141806  0.67058428  1
  F  F80  1  0.27164431  0.44311279  0.52088003  1
  F  F81  1  0.43515933  0.76289744  0.51926890  1
  F  F82  1  0.55756148  0.25281450  0.47537826  1
  F  F83  1  0.74860949  0.55854257  0.48797794  1
