# generated using pymatgen
data_H19PbC12SI4N3
_symmetry_space_group_name_H-M   'P 1'
_cell_length_a   12.33064629
_cell_length_b   12.29052919
_cell_length_c   17.90353835
_cell_angle_alpha   91.38403460
_cell_angle_beta   90.87992832
_cell_angle_gamma   91.32254003
_symmetry_Int_Tables_number   1
_chemical_formula_structural   H19PbC12SI4N3
_chemical_formula_sum   'H76 Pb4 C48 S4 I16 N12'
_cell_volume   2711.42626881
_cell_formula_units_Z   4
loop_
 _symmetry_equiv_pos_site_id
 _symmetry_equiv_pos_as_xyz
  1  'x, y, z'
loop_
 _atom_site_type_symbol
 _atom_site_label
 _atom_site_symmetry_multiplicity
 _atom_site_fract_x
 _atom_site_fract_y
 _atom_site_fract_z
 _atom_site_occupancy
  H  H0  1  0.18574567  0.32502201  0.87105259  1
  H  H1  1  0.31271937  0.29551175  0.90133707  1
  H  H2  1  0.21834955  0.19675219  0.89701753  1
  H  H3  1  0.34252797  0.18139481  0.79330685  1
  H  H4  1  0.30959611  0.31688062  0.76909165  1
  H  H5  1  0.14926797  0.11962810  0.76868952  1
  H  H6  1  0.11195991  0.25522294  0.75422698  1
  H  H7  1  0.21139843  0.35277695  0.62266711  1
  H  H8  1  0.25056545  0.43798807  0.50067297  1
  H  H9  1  0.29506800  0.48036202  0.36125765  1
  H  H10  1  0.38962735  0.23837674  0.24717837  1
  H  H11  1  0.35887126  0.37724458  0.23882245  1
  H  H12  1  0.16569357  0.32913215  0.20932914  1
  H  H13  1  0.18694467  0.18988010  0.23100794  1
  H  H14  1  0.18895876  0.21434074  0.09994130  1
  H  H15  1  0.31467910  0.17906618  0.12969439  1
  H  H16  1  0.28692345  0.30931466  0.10603292  1
  H  H17  1  0.24911371  0.03097530  0.51863766  1
  H  H18  1  0.20858025  0.01312492  0.65355136  1
  H  H19  1  0.33129260  0.80412372  0.87219671  1
  H  H20  1  0.31070750  0.67141174  0.88689861  1
  H  H21  1  0.20708274  0.75783636  0.89895371  1
  H  H22  1  0.18161779  0.65575797  0.78376811  1
  H  H23  1  0.31673166  0.69162836  0.75897944  1
  H  H24  1  0.12869546  0.85235037  0.77491620  1
  H  H25  1  0.26642413  0.89040330  0.76159624  1
  H  H26  1  0.35641707  0.79736322  0.62222570  1
  H  H27  1  0.43817678  0.75039591  0.49858018  1
  H  H28  1  0.47635117  0.70508644  0.35775552  1
  H  H29  1  0.22797129  0.61465026  0.24157706  1
  H  H30  1  0.36903776  0.64293485  0.23402652  1
  H  H31  1  0.33274431  0.84139299  0.21847996  1
  H  H32  1  0.19282378  0.81828686  0.23703387  1
  H  H33  1  0.21676494  0.83073727  0.10815480  1
  H  H34  1  0.18011932  0.70192900  0.12556806  1
  H  H35  1  0.31032740  0.73393697  0.10473003  1
  H  H36  1  0.03294242  0.75201057  0.52205707  1
  H  H37  1  0.01877635  0.79659461  0.65787107  1
  H  H38  1  0.67431132  0.31808299  0.12850219  1
  H  H39  1  0.69332738  0.18709081  0.09898759  1
  H  H40  1  0.79838662  0.27486608  0.10162284  1
  H  H41  1  0.81106421  0.15501315  0.20468869  1
  H  H42  1  0.67687821  0.19050985  0.23074208  1
  H  H43  1  0.87606873  0.34794053  0.22916391  1
  H  H44  1  0.74200152  0.38779052  0.24569530  1
  H  H45  1  0.64482818  0.28296953  0.37712156  1
  H  H46  1  0.56118044  0.24788220  0.49910248  1
  H  H47  1  0.51922725  0.20495826  0.63909397  1
  H  H48  1  0.75958720  0.10669273  0.74971049  1
  H  H49  1  0.62231017  0.14061212  0.76021547  1
  H  H50  1  0.67536566  0.33392330  0.79028927  1
  H  H51  1  0.81316186  0.30858862  0.76770616  1
  H  H52  1  0.78975032  0.30484052  0.89883188  1
  H  H53  1  0.81675910  0.17577727  0.86776721  1
  H  H54  1  0.68949691  0.21252937  0.89201796  1
  H  H55  1  0.96683625  0.25305223  0.47866400  1
  H  H56  1  0.98221013  0.29526263  0.34270554  1
  H  H57  1  0.70299296  0.66080790  0.12841876  1
  H  H58  1  0.83536924  0.68658691  0.11435625  1
  H  H59  1  0.74461776  0.78685849  0.10284753  1
  H  H60  1  0.84581529  0.81558994  0.21740996  1
  H  H61  1  0.81339344  0.67971133  0.24209303  1
  H  H62  1  0.64842756  0.86394946  0.22711305  1
  H  H63  1  0.61354588  0.72577288  0.24177459  1
  H  H64  1  0.71374464  0.64091573  0.37979342  1
  H  H65  1  0.75580079  0.56291120  0.50270068  1
  H  H66  1  0.80153336  0.52655603  0.64351843  1
  H  H67  1  0.88735880  0.77763284  0.76089271  1
  H  H68  1  0.86107090  0.63578899  0.76729188  1
  H  H69  1  0.66239154  0.66978941  0.78187209  1
  H  H70  1  0.68383846  0.81003968  0.76313608  1
  H  H71  1  0.66918698  0.78910242  0.89166737  1
  H  H72  1  0.79865361  0.82481966  0.87559053  1
  H  H73  1  0.76551952  0.69438891  0.89575131  1
  H  H74  1  0.74537493  0.96872625  0.47870371  1
  H  H75  1  0.70026230  0.97748340  0.34200988  1
  Pb  Pb76  1  0.98779121  0.99825124  0.01356934  1
  Pb  Pb77  1  0.01436296  0.50393821  -0.00018677  1
  Pb  Pb78  1  0.48958509  -0.00101158  0.99605747  1
  Pb  Pb79  1  0.51165107  0.50454007  0.98975062  1
  C  C80  1  0.27723386  0.24061388  0.79146988  1
  C  C81  1  0.17824066  0.19763788  0.74646333  1
  C  C82  1  0.20206098  0.18644038  0.66522775  1
  C  C83  1  0.21665740  0.26562945  0.61237114  1
  C  C84  1  0.23904673  0.21207549  0.54247027  1
  C  C85  1  0.25947243  0.26500466  0.47235544  1
  C  C86  1  0.26345809  0.37525657  0.45799565  1
  C  C87  1  0.28719168  0.39832270  0.38257689  1
  C  C88  1  0.30154460  0.30648165  0.33870012  1
  C  C89  1  0.32619907  0.29847808  0.25734725  1
  C  C90  1  0.22574688  0.26448688  0.21051798  1
  C  C91  1  0.23726825  0.10069554  0.55564676  1
  C  C92  1  0.24363240  0.72134995  0.78605934  1
  C  C93  1  0.20496781  0.82539291  0.74994601  1
  C  C94  1  0.19164599  0.80687807  0.66729797  1
  C  C95  1  0.26920770  0.79185464  0.61286406  1
  C  C96  1  0.21409613  0.76570428  0.54339322  1
  C  C97  1  0.26492066  0.74279420  0.47214273  1
  C  C98  1  0.37435499  0.73727348  0.45643732  1
  C  C99  1  0.39513092  0.71232121  0.38023447  1
  C  C100  1  0.30231510  0.69797088  0.33704284  1
  C  C101  1  0.29244711  0.67619795  0.25445206  1
  C  C102  1  0.26576957  0.78106264  0.21449561  1
  C  C103  1  0.10340516  0.76619074  0.55829277  1
  C  C104  1  0.75308500  0.22151552  0.20750728  1
  C  C105  1  0.79827153  0.32025090  0.25233155  1
  C  C106  1  0.81026907  0.29594783  0.33314879  1
  C  C107  1  0.73189505  0.27895684  0.38643788  1
  C  C108  1  0.78614131  0.25803562  0.45582835  1
  C  C109  1  0.73353179  0.23717608  0.52612366  1
  C  C110  1  0.62367308  0.23400896  0.54119614  1
  C  C111  1  0.60081246  0.21114864  0.61677041  1
  C  C112  1  0.69243737  0.19644860  0.65980284  1
  C  C113  1  0.70111841  0.17182364  0.74085360  1
  C  C114  1  0.73777699  0.27157070  0.78820588  1
  C  C115  1  0.89708507  0.26292988  0.44198737  1
  C  C116  1  0.78186405  0.75184220  0.21516325  1
  C  C117  1  0.67749919  0.78868537  0.25203123  1
  C  C118  1  0.69777417  0.80449691  0.33422068  1
  C  C119  1  0.71616108  0.72868297  0.38864859  1
  C  C120  1  0.73947139  0.78638450  0.45783231  1
  C  C121  1  0.76324437  0.73699332  0.52895452  1
  C  C122  1  0.76924275  0.62745586  0.54476328  1
  C  C123  1  0.79425938  0.60761330  0.62082319  1
  C  C124  1  0.80808493  0.70118726  0.66406758  1
  C  C125  1  0.82742011  0.71197662  0.74681732  1
  C  C126  1  0.72153260  0.73791712  0.78610887  1
  C  C127  1  0.73435576  0.89694816  0.44266532  1
  S  S128  1  0.28555333  0.19038490  0.39112907  1
  S  S129  1  0.18833905  0.71600847  0.39118741  1
  S  S130  1  0.80793478  0.21093961  0.60658456  1
  S  S131  1  0.78917670  0.81504574  0.60994397  1
  I  I132  1  0.23706422  0.01278979  0.96908173  1
  I  I133  1  0.26644904  0.48968894  0.03766617  1
  I  I134  1  0.73954186  0.98231102  0.05037734  1
  I  I135  1  0.76345430  0.50529751  0.95253216  1
  I  I136  1  0.98766027  0.25463253  0.04659232  1
  I  I137  1  0.01561465  0.75036567  0.95798245  1
  I  I138  1  0.51048615  0.24790403  0.95746418  1
  I  I139  1  0.49541006  0.75159442  0.03807158  1
  I  I140  1  0.92916485  0.01096596  0.83414756  1
  I  I141  1  0.03412875  0.97635483  0.18312123  1
  I  I142  1  0.04703215  0.45777677  0.82628966  1
  I  I143  1  0.00439029  0.56746448  0.17310803  1
  I  I144  1  0.49667438  0.93421450  0.82312686  1
  I  I145  1  0.45979142  0.04556057  0.17065668  1
  I  I146  1  0.46307241  0.52354829  0.81998611  1
  I  I147  1  0.57052191  0.48808402  0.16734364  1
  N  N148  1  0.24607567  0.26616833  0.87062429  1
  N  N149  1  0.25655682  0.23986583  0.13124390  1
  N  N150  1  0.21540381  0.08703054  0.62965801  1
  N  N151  1  0.27443795  0.74031685  0.86686662  1
  N  N152  1  0.24197782  0.76026407  0.13270492  1
  N  N153  1  0.09161341  0.79050953  0.63273369  1
  N  N154  1  0.72743263  0.25279732  0.12878076  1
  N  N155  1  0.76072718  0.23860451  0.86698104  1
  N  N156  1  0.90976172  0.28535346  0.36790261  1
  N  N157  1  0.76450751  0.71994080  0.13429771  1
  N  N158  1  0.74026661  0.76311712  0.86790296  1
  N  N159  1  0.70972111  0.90603230  0.36817524  1
