# generated using pymatgen
data_H19PbC12SI4N3
_symmetry_space_group_name_H-M   'P 1'
_cell_length_a   12.43380767
_cell_length_b   12.47921661
_cell_length_c   17.74747306
_cell_angle_alpha   90.96113681
_cell_angle_beta   90.88100930
_cell_angle_gamma   89.22244142
_symmetry_Int_Tables_number   1
_chemical_formula_structural   H19PbC12SI4N3
_chemical_formula_sum   'H76 Pb4 C48 S4 I16 N12'
_cell_volume   2752.81505461
_cell_formula_units_Z   4
loop_
 _symmetry_equiv_pos_site_id
 _symmetry_equiv_pos_as_xyz
  1  'x, y, z'
loop_
 _atom_site_type_symbol
 _atom_site_label
 _atom_site_symmetry_multiplicity
 _atom_site_fract_x
 _atom_site_fract_y
 _atom_site_fract_z
 _atom_site_occupancy
  H  H0  1  0.15769907  0.21343636  0.90003271  1
  H  H1  1  0.19021453  0.33316738  0.86806895  1
  H  H2  1  0.28837112  0.24391968  0.89304891  1
  H  H3  1  0.12960931  0.22722236  0.76542744  1
  H  H4  1  0.22123267  0.12267906  0.79070018  1
  H  H5  1  0.28639469  0.34946197  0.74352317  1
  H  H6  1  0.37688223  0.24457195  0.76696024  1
  H  H7  1  0.28971696  0.04488210  0.66474727  1
  H  H8  1  0.28402857  0.05878129  0.51229204  1
  H  H9  1  0.27898415  0.45964440  0.49091035  1
  H  H10  1  0.34188378  0.17301890  0.24587819  1
  H  H11  1  0.37624943  0.30479581  0.22105299  1
  H  H12  1  0.17596834  0.35309150  0.21011010  1
  H  H13  1  0.14580321  0.21720794  0.22988270  1
  H  H14  1  0.24066112  0.16118853  0.11794872  1
  H  H15  1  0.27568500  0.28647820  0.10014658  1
  H  H16  1  0.14606515  0.25158232  0.09641048  1
  H  H17  1  0.30519334  0.13910448  0.38788964  1
  H  H18  1  0.29333609  0.37081499  0.60734857  1
  H  H19  1  0.21452958  0.84164181  0.90296141  1
  H  H20  1  0.33278014  0.80163716  0.87027754  1
  H  H21  1  0.24064608  0.70962811  0.89242321  1
  H  H22  1  0.22663181  0.86918018  0.76950403  1
  H  H23  1  0.12081613  0.78135768  0.79162137  1
  H  H24  1  0.34855855  0.71080716  0.74283836  1
  H  H25  1  0.24419252  0.62258574  0.76508752  1
  H  H26  1  0.04254521  0.70792099  0.66320161  1
  H  H27  1  0.05760181  0.71515551  0.51161073  1
  H  H28  1  0.46022955  0.72200042  0.49128758  1
  H  H29  1  0.17436073  0.66053860  0.24554624  1
  H  H30  1  0.30728233  0.62650723  0.21914885  1
  H  H31  1  0.35020740  0.82425160  0.20860612  1
  H  H32  1  0.21516068  0.85711866  0.23325043  1
  H  H33  1  0.15255509  0.76480767  0.12150770  1
  H  H34  1  0.27574742  0.72287232  0.09953202  1
  H  H35  1  0.24411260  0.85422373  0.09794171  1
  H  H36  1  0.14019905  0.69682654  0.38679541  1
  H  H37  1  0.37064488  0.70799598  0.60719977  1
  H  H38  1  0.79115149  0.34181947  0.10027227  1
  H  H39  1  0.66928208  0.31148045  0.13004699  1
  H  H40  1  0.75820022  0.21259805  0.10555437  1
  H  H41  1  0.77226657  0.36924344  0.23396506  1
  H  H42  1  0.87803191  0.27820410  0.20971072  1
  H  H43  1  0.64970571  0.21294999  0.25553323  1
  H  H44  1  0.75527166  0.12298290  0.23164436  1
  H  H45  1  0.95513040  0.20952389  0.33476263  1
  H  H46  1  0.94057574  0.21639098  0.48708661  1
  H  H47  1  0.53794890  0.21691237  0.50827797  1
  H  H48  1  0.82609042  0.15834670  0.75287463  1
  H  H49  1  0.69366469  0.12587809  0.77842081  1
  H  H50  1  0.64706244  0.32488583  0.79007636  1
  H  H51  1  0.78242132  0.35481283  0.76766486  1
  H  H52  1  0.84254588  0.26044680  0.87867417  1
  H  H53  1  0.71880015  0.22422562  0.89874765  1
  H  H54  1  0.75240742  0.35474394  0.90227458  1
  H  H55  1  0.85986451  0.19789702  0.61138220  1
  H  H56  1  0.62766780  0.20542795  0.39202298  1
  H  H57  1  0.65555090  0.77832374  0.09800887  1
  H  H58  1  0.70159861  0.66346035  0.13164128  1
  H  H59  1  0.78944811  0.75786150  0.10760896  1
  H  H60  1  0.62970926  0.77281844  0.23184679  1
  H  H61  1  0.71796748  0.87710949  0.20787409  1
  H  H62  1  0.78989641  0.65163227  0.25842275  1
  H  H63  1  0.87734259  0.75625394  0.23590889  1
  H  H64  1  0.79254871  0.95714771  0.33740320  1
  H  H65  1  0.78480912  0.94281261  0.48909734  1
  H  H66  1  0.78165223  0.54147681  0.50937535  1
  H  H67  1  0.84072762  0.82619119  0.75605108  1
  H  H68  1  0.87480275  0.69350498  0.78237082  1
  H  H69  1  0.67606485  0.65032601  0.79102259  1
  H  H70  1  0.64332726  0.78490709  0.76671006  1
  H  H71  1  0.73721929  0.84551709  0.87989496  1
  H  H72  1  0.77024449  0.71954606  0.90238529  1
  H  H73  1  0.64140133  0.75883581  0.90047663  1
  H  H74  1  0.80237308  0.86062451  0.61422438  1
  H  H75  1  0.79256155  0.63054999  0.39379563  1
  Pb  Pb76  1  0.99153694  0.99663361  0.00581197  1
  Pb  Pb77  1  0.01168640  0.50285437  0.99925973  1
  Pb  Pb78  1  0.50014404  1.00023954  0.00192563  1
  Pb  Pb79  1  0.50369977  0.49195788  0.99424310  1
  C  C80  1  0.21043268  0.20982409  0.78797814  1
  C  C81  1  0.29696977  0.26167794  0.74159742  1
  C  C82  1  0.29138235  0.22135228  0.66196019  1
  C  C83  1  0.28846345  0.11778357  0.63224112  1
  C  C84  1  0.28677127  0.12510894  0.55257251  1
  C  C85  1  0.28862663  0.23336917  0.53448847  1
  C  C86  1  0.29122119  0.28483312  0.46194107  1
  C  C87  1  0.28734222  0.39439358  0.44999609  1
  C  C88  1  0.30632514  0.29073103  0.33031673  1
  C  C89  1  0.31479581  0.25729711  0.24923837  1
  C  C90  1  0.20712708  0.27034582  0.20779745  1
  C  C91  1  0.30145287  0.22626757  0.39214085  1
  C  C92  1  0.20839891  0.78879533  0.78936002  1
  C  C93  1  0.26059003  0.70153365  0.74087417  1
  C  C94  1  0.22006639  0.70663249  0.66134571  1
  C  C95  1  0.11629371  0.70910061  0.63134638  1
  C  C96  1  0.12421933  0.71196897  0.55178298  1
  C  C97  1  0.23305265  0.71115677  0.53394420  1
  C  C98  1  0.28539205  0.71062846  0.46152434  1
  C  C99  1  0.39534079  0.71488595  0.44987112  1
  C  C100  1  0.29233034  0.69870537  0.32935416  1
  C  C101  1  0.25814131  0.68819345  0.24833717  1
  C  C102  1  0.26734893  0.79487554  0.20823736  1
  C  C103  1  0.22743833  0.70206565  0.39127634  1
  C  C104  1  0.79050197  0.28866061  0.21170802  1
  C  C105  1  0.73778765  0.20229776  0.25747853  1
  C  C106  1  0.77791518  0.20742740  0.33728708  1
  C  C107  1  0.88176777  0.21085535  0.36712420  1
  C  C108  1  0.87408651  0.21387846  0.44678339  1
  C  C109  1  0.76537986  0.21221227  0.46477452  1
  C  C110  1  0.71358050  0.20972079  0.53733502  1
  C  C111  1  0.60356511  0.21131303  0.54924995  1
  C  C112  1  0.70770257  0.19465062  0.66887471  1
  C  C113  1  0.74174191  0.18626889  0.74977540  1
  C  C114  1  0.73018384  0.29389990  0.79112254  1
  C  C115  1  0.77238055  0.20091296  0.60711745  1
  C  C116  1  0.71027897  0.78992981  0.21122574  1
  C  C117  1  0.79821004  0.73942291  0.26012244  1
  C  C118  1  0.79235469  0.78031465  0.33953598  1
  C  C119  1  0.78993158  0.88387326  0.36938587  1
  C  C120  1  0.78675357  0.87625835  0.44896551  1
  C  C121  1  0.78741058  0.76787912  0.46693395  1
  C  C122  1  0.78956557  0.71586341  0.53940089  1
  C  C123  1  0.78730135  0.60622239  0.55091255  1
  C  C124  1  0.80439767  0.70878396  0.67152103  1
  C  C125  1  0.81339898  0.74258776  0.75282480  1
  C  C126  1  0.70552124  0.73290131  0.79191333  1
  C  C127  1  0.79861141  0.77357836  0.60971207  1
  S  S128  1  0.29735783  0.42433659  0.35658392  1
  S  S129  1  0.42628011  0.70733226  0.35613945  1
  S  S130  1  0.57345346  0.20019046  0.64260736  1
  S  S131  1  0.79779669  0.57516935  0.64445691  1
  I  I132  1  0.24324482  0.00627105  0.00156645  1
  I  I133  1  0.25673642  0.53204579  0.02472986  1
  I  I134  1  0.74251121  0.04944047  0.99170963  1
  I  I135  1  0.75434331  0.51786485  0.97874548  1
  I  I136  1  0.98949657  0.25431115  0.00695981  1
  I  I137  1  0.95728184  0.75353211  0.01174481  1
  I  I138  1  0.45821941  0.24768949  0.97686912  1
  I  I139  1  0.49003207  0.74884217  0.00886083  1
  I  I140  1  0.99328796  0.00319700  0.82676707  1
  I  I141  1  0.00753354  0.00643247  0.18471064  1
  I  I142  1  0.03318822  0.47417329  0.81920604  1
  I  I143  1  0.98913577  0.50758602  0.17620059  1
  I  I144  1  0.47616139  0.95800381  0.82042434  1
  I  I145  1  0.49872557  0.01250655  0.17802445  1
  I  I146  1  0.48341293  0.50892303  0.81991012  1
  I  I147  1  0.55511841  0.49147143  0.17689961  1
  N  N148  1  0.21271820  0.25245331  0.86751841  1
  N  N149  1  0.21865768  0.24082473  0.12591765  1
  N  N150  1  0.29073143  0.28998852  0.60209878  1
  N  N151  1  0.25111020  0.78383761  0.86897994  1
  N  N152  1  0.23301081  0.78349169  0.12704126  1
  N  N153  1  0.28950469  0.70826982  0.60167444  1
  N  N154  1  0.74967051  0.28720142  0.13147890  1
  N  N155  1  0.76252947  0.28240369  0.87229782  1
  N  N156  1  0.70874747  0.20915364  0.39715665  1
  N  N157  1  0.71549487  0.74533559  0.13223322  1
  N  N158  1  0.71455612  0.76656452  0.87357243  1
  N  N159  1  0.78997271  0.71139816  0.39923397  1
