# generated using pymatgen
data_H19PbC12SI4N3
_symmetry_space_group_name_H-M   'P 1'
_cell_length_a   12.35893497
_cell_length_b   12.42641452
_cell_length_c   18.09729114
_cell_angle_alpha   91.08249787
_cell_angle_beta   90.93117100
_cell_angle_gamma   89.99749082
_symmetry_Int_Tables_number   1
_chemical_formula_structural   H19PbC12SI4N3
_chemical_formula_sum   'H76 Pb4 C48 S4 I16 N12'
_cell_volume   2778.46908710
_cell_formula_units_Z   4
loop_
 _symmetry_equiv_pos_site_id
 _symmetry_equiv_pos_as_xyz
  1  'x, y, z'
loop_
 _atom_site_type_symbol
 _atom_site_label
 _atom_site_symmetry_multiplicity
 _atom_site_fract_x
 _atom_site_fract_y
 _atom_site_fract_z
 _atom_site_occupancy
  H  H0  1  0.26529385  0.33942263  0.86365276  1
  H  H1  1  0.19301151  0.24137389  0.90125289  1
  H  H2  1  0.32474851  0.22336471  0.88227868  1
  H  H3  1  0.14210158  0.25033233  0.77391656  1
  H  H4  1  0.21334987  0.12838061  0.79044917  1
  H  H5  1  0.31374498  0.33660951  0.73128848  1
  H  H6  1  0.38635739  0.21721946  0.75011268  1
  H  H7  1  0.27191651  0.02890523  0.66278393  1
  H  H8  1  0.22397722  0.03683928  0.51606861  1
  H  H9  1  0.21353754  0.43484731  0.48633175  1
  H  H10  1  0.17969215  0.46545793  0.34471361  1
  H  H11  1  0.11868933  0.20996688  0.23214648  1
  H  H12  1  0.13226727  0.35136411  0.22387795  1
  H  H13  1  0.32321920  0.18980918  0.22733897  1
  H  H14  1  0.33472461  0.33121124  0.21456230  1
  H  H15  1  0.33685790  0.22966559  0.09922823  1
  H  H16  1  0.21325692  0.18009915  0.11388298  1
  H  H17  1  0.22998898  0.31142145  0.10119099  1
  H  H18  1  0.26983983  0.35350954  0.59938259  1
  H  H19  1  0.33311549  0.72273145  0.86609467  1
  H  H20  1  0.23580233  0.79849952  0.90465283  1
  H  H21  1  0.21128688  0.66945117  0.87759672  1
  H  H22  1  0.25331853  0.85537793  0.78095278  1
  H  H23  1  0.12788512  0.78669617  0.79043409  1
  H  H24  1  0.33891362  0.68857925  0.72969476  1
  H  H25  1  0.22034586  0.61411705  0.74606627  1
  H  H26  1  0.02931060  0.72867613  0.66292759  1
  H  H27  1  0.03758423  0.77722150  0.51739058  1
  H  H28  1  0.43818683  0.78481559  0.48707969  1
  H  H29  1  0.46853958  0.82024854  0.34649189  1
  H  H30  1  0.21065621  0.88500475  0.23710696  1
  H  H31  1  0.35232943  0.87047687  0.22725329  1
  H  H32  1  0.18819648  0.68212661  0.22612268  1
  H  H33  1  0.33058927  0.66947811  0.21300789  1
  H  H34  1  0.23419157  0.67057316  0.09706319  1
  H  H35  1  0.17725240  0.79075995  0.11649991  1
  H  H36  1  0.30958556  0.78207443  0.10429358  1
  H  H37  1  0.35588681  0.73226909  0.59928532  1
  H  H38  1  0.66236044  0.23387713  0.13324971  1
  H  H39  1  0.76332170  0.30462392  0.09749056  1
  H  H40  1  0.77983527  0.17416621  0.11702806  1
  H  H41  1  0.74884623  0.35691167  0.22409724  1
  H  H42  1  0.87208479  0.28591178  0.20948018  1
  H  H43  1  0.66133910  0.18684346  0.26755099  1
  H  H44  1  0.78129370  0.11433856  0.24914502  1
  H  H45  1  0.97021398  0.22906490  0.33633828  1
  H  H46  1  0.96222167  0.27707904  0.48254880  1
  H  H47  1  0.56177251  0.28117493  0.51449013  1
  H  H48  1  0.53217329  0.31559664  0.65639063  1
  H  H49  1  0.79027727  0.38186455  0.76740933  1
  H  H50  1  0.64820164  0.36809630  0.77654463  1
  H  H51  1  0.81015725  0.17784915  0.77053323  1
  H  H52  1  0.66784122  0.16683568  0.78344195  1
  H  H53  1  0.76434182  0.16284703  0.89998413  1
  H  H54  1  0.82322922  0.28170638  0.88476715  1
  H  H55  1  0.69102577  0.27539907  0.89679618  1
  H  H56  1  0.64393384  0.22775674  0.40032329  1
  H  H57  1  0.77720675  0.66441579  0.13606693  1
  H  H58  1  0.70044357  0.76010419  0.09700056  1
  H  H59  1  0.83079107  0.78427744  0.12094564  1
  H  H60  1  0.64550692  0.74721000  0.22099870  1
  H  H61  1  0.71468172  0.87151073  0.20923008  1
  H  H62  1  0.81483347  0.66331091  0.27081503  1
  H  H63  1  0.88815821  0.78229968  0.25476125  1
  H  H64  1  0.77367260  0.97074122  0.33849535  1
  H  H65  1  0.72391419  0.96235211  0.48391400  1
  H  H66  1  0.71767721  0.56367455  0.51344817  1
  H  H67  1  0.68262561  0.53288191  0.65360084  1
  H  H68  1  0.61491716  0.78842676  0.76441131  1
  H  H69  1  0.62981047  0.64753286  0.77332697  1
  H  H70  1  0.81903642  0.81109607  0.77541843  1
  H  H71  1  0.83180707  0.66955706  0.78827287  1
  H  H72  1  0.82957642  0.76578116  0.90491421  1
  H  H73  1  0.70965479  0.82230003  0.88496528  1
  H  H74  1  0.71851755  0.69013392  0.89715186  1
  H  H75  1  0.77041570  0.64609470  0.40127652  1
  Pb  Pb76  1  0.99699204  0.00580726  0.99564088  1
  Pb  Pb77  1  0.99482103  0.50363549  0.99820140  1
  Pb  Pb78  1  0.49307059  0.00453424  0.99608442  1
  Pb  Pb79  1  0.49753524  0.50635869  0.00776737  1
  C  C80  1  0.22169480  0.21599933  0.78711520  1
  C  C81  1  0.30692108  0.24821666  0.73152362  1
  C  C82  1  0.27969676  0.20552466  0.65580505  1
  C  C83  1  0.26518232  0.10060718  0.62970984  1
  C  C84  1  0.24073508  0.10475591  0.55311981  1
  C  C85  1  0.24069382  0.21259273  0.53299537  1
  C  C86  1  0.22182474  0.26179040  0.46240199  1
  C  C87  1  0.21046624  0.36960450  0.44525701  1
  C  C88  1  0.19172584  0.38654892  0.36875591  1
  C  C89  1  0.18830551  0.29257686  0.32721170  1
  C  C90  1  0.17248194  0.27893101  0.24536881  1
  C  C91  1  0.28073835  0.26144858  0.20740473  1
  C  C92  1  0.21596011  0.77642871  0.78894271  1
  C  C93  1  0.25003488  0.69407639  0.73023950  1
  C  C94  1  0.20700154  0.72219042  0.65561362  1
  C  C95  1  0.10145603  0.73605167  0.63000748  1
  C  C96  1  0.10575009  0.76055930  0.55401621  1
  C  C97  1  0.21424736  0.76118285  0.53387155  1
  C  C98  1  0.26386078  0.78041414  0.46383764  1
  C  C99  1  0.37230187  0.78999937  0.44653944  1
  C  C100  1  0.38909247  0.80951791  0.37054584  1
  C  C101  1  0.29432094  0.81533816  0.32976398  1
  C  C102  1  0.27962176  0.83102286  0.24857725  1
  C  C103  1  0.26092432  0.72388453  0.20755760  1
  C  C104  1  0.78392099  0.27759415  0.21190771  1
  C  C105  1  0.75012390  0.19355288  0.26749256  1
  C  C106  1  0.79249624  0.22132008  0.34323914  1
  C  C107  1  0.89788745  0.23619825  0.36914640  1
  C  C108  1  0.89373402  0.26087123  0.44570244  1
  C  C109  1  0.78533679  0.26075395  0.46605743  1
  C  C110  1  0.73624295  0.27978416  0.53686681  1
  C  C111  1  0.62781204  0.28794325  0.55492276  1
  C  C112  1  0.61144668  0.30690977  0.63151723  1
  C  C113  1  0.70641262  0.31405946  0.67224314  1
  C  C114  1  0.72087629  0.32858250  0.75411308  1
  C  C115  1  0.73826811  0.22005095  0.79100948  1
  C  C116  1  0.72480153  0.78393897  0.21179545  1
  C  C117  1  0.80810186  0.75163205  0.27044451  1
  C  C118  1  0.77884593  0.79403490  0.34511966  1
  C  C119  1  0.76457927  0.89893376  0.37096999  1
  C  C120  1  0.73936520  0.89455160  0.44688312  1
  C  C121  1  0.73856839  0.78659129  0.46675230  1
  C  C122  1  0.71928465  0.73722548  0.53676197  1
  C  C123  1  0.71095760  0.62926207  0.55392958  1
  C  C124  1  0.69181132  0.61225232  0.62994264  1
  C  C125  1  0.68505536  0.70631758  0.67107898  1
  C  C126  1  0.66945456  0.72012469  0.75248519  1
  C  C127  1  0.77690120  0.73871425  0.79370117  1
  S  S128  1  0.20951276  0.18228824  0.38280961  1
  S  S129  1  0.18353828  0.79592829  0.38526154  1
  S  S130  1  0.81689464  0.29622480  0.61569015  1
  S  S131  1  0.70310103  0.81686462  0.61564297  1
  I  I132  1  0.24606352  0.95609377  0.99861997  1
  I  I133  1  0.24691625  0.50311409  0.02758704  1
  I  I134  1  0.74620710  0.02294786  0.99985830  1
  I  I135  1  0.74569427  0.47169768  0.98128922  1
  I  I136  1  0.03784238  0.25221359  0.99604558  1
  I  I137  1  0.97822280  0.75338581  0.00029120  1
  I  I138  1  0.48174738  0.25402326  0.98495343  1
  I  I139  1  0.53179673  0.75567142  0.01651565  1
  I  I140  1  0.97845559  0.99920826  0.82227648  1
  I  I141  1  0.99165688  0.00129358  0.17523543  1
  I  I142  1  0.02654471  0.49988488  0.82307542  1
  I  I143  1  0.97526559  0.52495282  0.17336063  1
  I  I144  1  0.48556250  0.98586636  0.82042914  1
  I  I145  1  0.50509678  0.04243403  0.17165193  1
  I  I146  1  0.44961024  0.50915656  0.83103825  1
  I  I147  1  0.53236906  0.49366460  0.18049130  1
  N  N148  1  0.25301284  0.25701466  0.86310598  1
  N  N149  1  0.26413906  0.24423340  0.12553972  1
  N  N150  1  0.26427312  0.27226716  0.59661672  1
  N  N151  1  0.25116446  0.73953511  0.86441102  1
  N  N152  1  0.24420536  0.74327959  0.12664172  1
  N  N153  1  0.27417844  0.73793792  0.59679616  1
  N  N154  1  0.74527809  0.24580267  0.13509363  1
  N  N155  1  0.75548106  0.23570774  0.87275777  1
  N  N156  1  0.72531704  0.23695492  0.40252996  1
  N  N157  1  0.76065040  0.74609885  0.13674055  1
  N  N158  1  0.75717749  0.75543535  0.87493185  1
  N  N159  1  0.76225000  0.72716033  0.40365518  1
