# generated using pymatgen
data_H21PbC14I4N3
_symmetry_space_group_name_H-M   'P 1'
_cell_length_a   12.36517709
_cell_length_b   12.38188341
_cell_length_c   18.75620117
_cell_angle_alpha   89.53781234
_cell_angle_beta   89.43028987
_cell_angle_gamma   89.75579498
_symmetry_Int_Tables_number   1
_chemical_formula_structural   H21PbC14I4N3
_chemical_formula_sum   'H84 Pb4 C56 I16 N12'
_cell_volume   2871.39232274
_cell_formula_units_Z   4
loop_
 _symmetry_equiv_pos_site_id
 _symmetry_equiv_pos_as_xyz
  1  'x, y, z'
loop_
 _atom_site_type_symbol
 _atom_site_label
 _atom_site_symmetry_multiplicity
 _atom_site_fract_x
 _atom_site_fract_y
 _atom_site_fract_z
 _atom_site_occupancy
  H  H0  1  0.32148735  0.23033232  0.88286643  1
  H  H1  1  0.19664297  0.27438543  0.90251944  1
  H  H2  1  0.29337092  0.36026361  0.87436578  1
  H  H3  1  0.19626015  0.18499554  0.78790367  1
  H  H4  1  0.16571201  0.32538193  0.77928150  1
  H  H5  1  0.36197388  0.36302019  0.75038333  1
  H  H6  1  0.39169682  0.22330412  0.75847969  1
  H  H7  1  0.33788665  0.09581288  0.66559081  1
  H  H8  1  0.29265241  0.06920914  0.53910015  1
  H  H9  1  0.25592466  0.37473628  0.38880111  1
  H  H10  1  0.17929592  0.37116925  0.25201675  1
  H  H11  1  0.10291583  0.25806745  0.22643241  1
  H  H12  1  0.27417434  0.15383640  0.20102645  1
  H  H13  1  0.35179401  0.26758780  0.22689433  1
  H  H14  1  0.27002351  0.37104106  0.13182758  1
  H  H15  1  0.19458524  0.26694009  0.10641323  1
  H  H16  1  0.32934705  0.26161698  0.09897173  1
  H  H17  1  0.12146456  0.06993496  0.31803120  1
  H  H18  1  0.16140680  0.05990433  0.44953082  1
  H  H19  1  0.21092497  0.40754437  0.52002981  1
  H  H20  1  0.26005030  0.43388209  0.64594881  1
  H  H21  1  0.22958643  0.68076061  0.88446003  1
  H  H22  1  0.27524709  0.80443051  0.90189077  1
  H  H23  1  0.35976014  0.70551975  0.87424866  1
  H  H24  1  0.18437281  0.80524841  0.78755474  1
  H  H25  1  0.32491618  0.83415196  0.77795934  1
  H  H26  1  0.36192256  0.63757891  0.75186015  1
  H  H27  1  0.22195613  0.60943983  0.76048603  1
  H  H28  1  0.09545613  0.66132377  0.66664291  1
  H  H29  1  0.06894092  0.70668201  0.53959476  1
  H  H30  1  0.37398963  0.74552448  0.38871325  1
  H  H31  1  0.36882354  0.81966711  0.25164556  1
  H  H32  1  0.25564008  0.89649509  0.22504559  1
  H  H33  1  0.15225588  0.72621244  0.20053152  1
  H  H34  1  0.26618676  0.64784055  0.22796051  1
  H  H35  1  0.37094221  0.72929643  0.13309903  1
  H  H36  1  0.26691168  0.80532000  0.10584896  1
  H  H37  1  0.26222951  0.67080141  0.09973508  1
  H  H38  1  0.06569330  0.87577554  0.31710564  1
  H  H39  1  0.05679061  0.83523989  0.44928844  1
  H  H40  1  0.40681784  0.78956572  0.51995196  1
  H  H41  1  0.43337970  0.74020449  0.64633721  1
  H  H42  1  0.76958463  0.17426231  0.11650800  1
  H  H43  1  0.72495226  0.29858801  0.09704718  1
  H  H44  1  0.63972484  0.20197327  0.12611182  1
  H  H45  1  0.81580583  0.30142394  0.21083781  1
  H  H46  1  0.67510943  0.33124698  0.22027612  1
  H  H47  1  0.63907829  0.13536490  0.24992049  1
  H  H48  1  0.77901448  0.10658835  0.24145435  1
  H  H49  1  0.90665232  0.16236215  0.33445621  1
  H  H50  1  0.93229836  0.20752740  0.46078810  1
  H  H51  1  0.62580886  0.24157247  0.61192161  1
  H  H52  1  0.62914277  0.31897776  0.74844826  1
  H  H53  1  0.74271106  0.39471058  0.77435266  1
  H  H54  1  0.84660945  0.22321751  0.79875877  1
  H  H55  1  0.73288516  0.14616449  0.77222738  1
  H  H56  1  0.62850224  0.22411132  0.86741757  1
  H  H57  1  0.73118648  0.30160442  0.89330320  1
  H  H58  1  0.73851090  0.16686079  0.90068702  1
  H  H59  1  0.92932690  0.38149743  0.68116845  1
  H  H60  1  0.93799298  0.34262129  0.54912856  1
  H  H61  1  0.59308926  0.28783169  0.47985761  1
  H  H62  1  0.56755970  0.23832503  0.35369390  1
  H  H63  1  0.82470893  0.76928232  0.11540028  1
  H  H64  1  0.70106668  0.72349664  0.09787260  1
  H  H65  1  0.79950378  0.63961310  0.12692312  1
  H  H66  1  0.69806833  0.81683950  0.21136166  1
  H  H67  1  0.66846684  0.67653932  0.22171131  1
  H  H68  1  0.86512874  0.63995798  0.24847215  1
  H  H69  1  0.89301223  0.77967709  0.23988380  1
  H  H70  1  0.83814015  0.90639471  0.33405337  1
  H  H71  1  0.79315397  0.93173801  0.46133507  1
  H  H72  1  0.75961005  0.62592161  0.61219381  1
  H  H73  1  0.68186571  0.62999395  0.74924940  1
  H  H74  1  0.60540199  0.74334951  0.77623629  1
  H  H75  1  0.77672373  0.84677219  0.79896326  1
  H  H76  1  0.85444572  0.73276089  0.77147235  1
  H  H77  1  0.77594050  0.62915466  0.86734412  1
  H  H78  1  0.69878971  0.73251470  0.89441678  1
  H  H79  1  0.83368764  0.73854665  0.90009707  1
  H  H80  1  0.61730662  0.92969518  0.68275734  1
  H  H81  1  0.65623006  0.93742989  0.55018511  1
  H  H82  1  0.71259242  0.59350868  0.47994306  1
  H  H83  1  0.76191106  0.56846026  0.35303448  1
  Pb  Pb84  1  1.00131771  0.00418457  0.99637747  1
  Pb  Pb85  1  0.99573559  0.49837523  0.99581468  1
  Pb  Pb86  1  0.49541031  -0.00072963  0.99667918  1
  Pb  Pb87  1  0.50116848  0.50397535  0.00913182  1
  C  C88  1  0.23016926  0.26668261  0.79087167  1
  C  C89  1  0.32885117  0.28171406  0.74226815  1
  C  C90  1  0.30135358  0.26629018  0.66500803  1
  C  C91  1  0.30901662  0.16408952  0.63370013  1
  C  C92  1  0.28241321  0.14914227  0.56245354  1
  C  C93  1  0.24637386  0.23621645  0.51991422  1
  C  C94  1  0.21786663  0.22211914  0.44528710  1
  C  C95  1  0.22386212  0.29324655  0.38737505  1
  C  C96  1  0.18488262  0.23911226  0.32621875  1
  C  C97  1  0.17914888  0.28229457  0.25152993  1
  C  C98  1  0.27354750  0.24206491  0.20584476  1
  C  C99  1  0.15580273  0.13574422  0.34806086  1
  C  C100  1  0.23902414  0.33881017  0.55166202  1
  C  C101  1  0.26627255  0.35338022  0.62278356  1
  C  C102  1  0.26606049  0.77047323  0.79068440  1
  C  C103  1  0.28064396  0.67152161  0.74339447  1
  C  C104  1  0.26562703  0.69865521  0.66574357  1
  C  C105  1  0.16358689  0.69050850  0.63447296  1
  C  C106  1  0.14871401  0.71714830  0.56293143  1
  C  C107  1  0.23566149  0.75369208  0.52019583  1
  C  C108  1  0.22106975  0.78257761  0.44535005  1
  C  C109  1  0.29177134  0.77667229  0.38719592  1
  C  C110  1  0.23633291  0.81421045  0.32563902  1
  C  C111  1  0.27983048  0.82007003  0.25090862  1
  C  C112  1  0.24050171  0.72612682  0.20596711  1
  C  C113  1  0.13242246  0.84238098  0.34744181  1
  C  C114  1  0.33826044  0.76102919  0.55182559  1
  C  C115  1  0.35287950  0.73371153  0.62323739  1
  C  C116  1  0.73416870  0.26708293  0.20857100  1
  C  C117  1  0.72024189  0.16913034  0.25771596  1
  C  C118  1  0.73547591  0.19734789  0.33488698  1
  C  C119  1  0.83767332  0.19025345  0.36626141  1
  C  C120  1  0.85208031  0.21667490  0.43763203  1
  C  C121  1  0.76441993  0.25196109  0.48019395  1
  C  C122  1  0.77805440  0.28082986  0.55483391  1
  C  C123  1  0.70727053  0.27406528  0.61301353  1
  C  C124  1  0.76124971  0.31426724  0.67391718  1
  C  C125  1  0.71817486  0.31893657  0.74878864  1
  C  C126  1  0.75827810  0.22398746  0.79387746  1
  C  C127  1  0.86410158  0.34509844  0.65154721  1
  C  C128  1  0.66185173  0.25902047  0.44836027  1
  C  C129  1  0.64789420  0.23198501  0.37713801  1
  C  C130  1  0.73251923  0.73503760  0.20898781  1
  C  C131  1  0.83085130  0.72106431  0.25686065  1
  C  C132  1  0.80294761  0.73594754  0.33442794  1
  C  C133  1  0.81035447  0.83768502  0.36614869  1
  C  C134  1  0.78416258  0.85181377  0.43796085  1
  C  C135  1  0.74865017  0.76424660  0.48050952  1
  C  C136  1  0.71930657  0.77778947  0.55543882  1
  C  C137  1  0.72648464  0.70732267  0.61354546  1
  C  C138  1  0.68592884  0.76168328  0.67487340  1
  C  C139  1  0.68153454  0.71888703  0.74980291  1
  C  C140  1  0.77636541  0.75857847  0.79392919  1
  C  C141  1  0.65422583  0.86432463  0.65279367  1
  C  C142  1  0.74150906  0.66208696  0.44835914  1
  C  C143  1  0.76840089  0.64844901  0.37675094  1
  I  I144  1  0.25026309  0.93488077  0.00144048  1
  I  I145  1  0.24875970  0.53443497  0.00043883  1
  I  I146  1  0.75014006  0.03300367  0.99979813  1
  I  I147  1  0.74884255  0.43917296  0.99731302  1
  I  I148  1  0.06460003  0.24987687  0.00176803  1
  I  I149  1  0.96606030  0.75023473  0.00062059  1
  I  I150  1  0.46690287  0.25066046  0.99930250  1
  I  I151  1  0.56080336  0.75002358  1.00009498  1
  I  I152  1  0.00740503  0.00250977  0.83034738  1
  I  I153  1  0.98516493  0.99911207  0.17325553  1
  I  I154  1  0.99700784  0.51231486  0.82324523  1
  I  I155  1  0.98723228  0.49352286  0.16301117  1
  I  I156  1  0.49795160  0.02057351  0.82389100  1
  I  I157  1  0.49821898  0.00352437  0.16353605  1
  I  I158  1  0.49702120  0.50473793  0.84142743  1
  I  I159  1  0.48312379  0.50367382  0.17991328  1
  N  N160  1  0.26191269  0.28393839  0.86701467  1
  N  N161  1  0.26613098  0.28780085  0.13175694  1
  N  N162  1  0.17681902  0.12650090  0.41949653  1
  N  N163  1  0.28374640  0.73898140  0.86723148  1
  N  N164  1  0.28765581  0.73361432  0.13208831  1
  N  N165  1  0.12435016  0.82289919  0.41949378  1
  N  N166  1  0.71615022  0.23408865  0.13266008  1
  N  N167  1  0.71179376  0.23007093  0.86788967  1
  N  N168  1  0.87324214  0.32348087  0.58015243  1
  N  N169  1  0.76568790  0.71579530  0.13284454  1
  N  N170  1  0.77036371  0.71232334  0.86810129  1
  N  N171  1  0.67581145  0.87304878  0.58112433  1
