# generated using pymatgen
data_H19PbC12SI4N3
_symmetry_space_group_name_H-M   'P 1'
_cell_length_a   12.32315802
_cell_length_b   12.32664233
_cell_length_c   17.91318659
_cell_angle_alpha   90.12951281
_cell_angle_beta   90.54889495
_cell_angle_gamma   90.34694954
_symmetry_Int_Tables_number   1
_chemical_formula_structural   H19PbC12SI4N3
_chemical_formula_sum   'H76 Pb4 C48 S4 I16 N12'
_cell_volume   2720.88760697
_cell_formula_units_Z   4
loop_
 _symmetry_equiv_pos_site_id
 _symmetry_equiv_pos_as_xyz
  1  'x, y, z'
loop_
 _atom_site_type_symbol
 _atom_site_label
 _atom_site_symmetry_multiplicity
 _atom_site_fract_x
 _atom_site_fract_y
 _atom_site_fract_z
 _atom_site_occupancy
  H  H0  1  0.33335892  0.18915366  0.88744734  1
  H  H1  1  0.19977273  0.17052968  0.87268222  1
  H  H2  1  0.24694715  0.29491791  0.89496738  1
  H  H3  1  0.34829519  0.30624068  0.78103920  1
  H  H4  1  0.30956387  0.17035855  0.76000619  1
  H  H5  1  0.15262189  0.36475761  0.76757116  1
  H  H6  1  0.11252687  0.22773641  0.75468957  1
  H  H7  1  0.21507445  0.12685576  0.62198997  1
  H  H8  1  0.24833866  0.03502066  0.50143760  1
  H  H9  1  0.38879822  0.17100464  0.23885464  1
  H  H10  1  0.35764354  0.30795502  0.26065568  1
  H  H11  1  0.18996488  0.13468798  0.21069234  1
  H  H12  1  0.15958103  0.27159842  0.23392431  1
  H  H13  1  0.18019925  0.25001386  0.10087040  1
  H  H14  1  0.30657688  0.20257389  0.11162349  1
  H  H15  1  0.28064187  0.32988586  0.13466980  1
  H  H16  1  0.28675670  0.35172740  0.39502440  1
  H  H17  1  0.24221401  0.44349028  0.51474324  1
  H  H18  1  0.20049163  0.46560269  0.65069584  1
  H  H19  1  0.20311170  0.68876440  0.90117265  1
  H  H20  1  0.17282247  0.81802039  0.87482050  1
  H  H21  1  0.30103033  0.78191731  0.89644204  1
  H  H22  1  0.30518756  0.65720298  0.79087430  1
  H  H23  1  0.16882161  0.69564705  0.76954432  1
  H  H24  1  0.36863668  0.84876622  0.76956337  1
  H  H25  1  0.23314634  0.89103841  0.75708758  1
  H  H26  1  0.12583670  0.78925345  0.62505107  1
  H  H27  1  0.03083328  0.75805596  0.50402708  1
  H  H28  1  0.16425405  0.60950427  0.24396538  1
  H  H29  1  0.30041602  0.64124472  0.26694820  1
  H  H30  1  0.13413131  0.80820938  0.20899720  1
  H  H31  1  0.27379202  0.83392662  0.22938811  1
  H  H32  1  0.25603401  0.79927013  0.10061073  1
  H  H33  1  0.18302869  0.68641809  0.11319025  1
  H  H34  1  0.31463669  0.68558810  0.13772391  1
  H  H35  1  0.34577370  0.71654134  0.39738777  1
  H  H36  1  0.43979751  0.75819189  0.51631222  1
  H  H37  1  0.46570701  0.79790387  0.65277091  1
  H  H38  1  0.81010037  0.17044294  0.11162725  1
  H  H39  1  0.82823884  0.30356185  0.12700803  1
  H  H40  1  0.70418009  0.25592246  0.10344779  1
  H  H41  1  0.69210240  0.15451504  0.21789008  1
  H  H42  1  0.82771048  0.19418512  0.24011658  1
  H  H43  1  0.63213068  0.34971272  0.22856087  1
  H  H44  1  0.76939183  0.39066419  0.24090110  1
  H  H45  1  0.87095520  0.30336045  0.37762888  1
  H  H46  1  0.96459607  0.25660899  0.49847088  1
  H  H47  1  0.82693540  0.11678498  0.75866337  1
  H  H48  1  0.69027389  0.14872907  0.73683990  1
  H  H49  1  0.86490471  0.31379074  0.78948562  1
  H  H50  1  0.72846725  0.34651632  0.76561793  1
  H  H51  1  0.74965578  0.32300977  0.89826553  1
  H  H52  1  0.79341183  0.19513491  0.88747773  1
  H  H53  1  0.66737378  0.22572266  0.86326650  1
  H  H54  1  0.64658027  0.22168684  0.60269405  1
  H  H55  1  0.55603615  0.24925390  0.48112429  1
  H  H56  1  0.53163547  0.29020536  0.34552888  1
  H  H57  1  0.80918804  0.79891148  0.10023189  1
  H  H58  1  0.68372607  0.83513413  0.13071089  1
  H  H59  1  0.71059284  0.70633888  0.10522758  1
  H  H60  1  0.84370177  0.69336334  0.20920279  1
  H  H61  1  0.80563457  0.82824482  0.23368065  1
  H  H62  1  0.65390977  0.62739561  0.23143384  1
  H  H63  1  0.60975905  0.76187005  0.24442950  1
  H  H64  1  0.70763871  0.86867675  0.37631087  1
  H  H65  1  0.74430607  0.96301327  0.49707820  1
  H  H66  1  0.89080789  0.82980257  0.75822342  1
  H  H67  1  0.85838460  0.69329408  0.73708300  1
  H  H68  1  0.69362288  0.86260797  0.79209874  1
  H  H69  1  0.66463165  0.72342670  0.77154765  1
  H  H70  1  0.69656292  0.74194508  0.90032786  1
  H  H71  1  0.81383505  0.80819334  0.88936391  1
  H  H72  1  0.80689436  0.67665232  0.86513597  1
  H  H73  1  0.78546822  0.64724743  0.60432691  1
  H  H74  1  0.75242913  0.55463875  0.48431022  1
  H  H75  1  0.71399648  0.52869999  0.34857886  1
  Pb  Pb76  1  1.00434684  0.00605769  0.00746345  1
  Pb  Pb77  1  0.98935650  0.50255417  0.00440937  1
  Pb  Pb78  1  0.50744581  0.00720053  0.00385996  1
  Pb  Pb79  1  0.48822291  0.50249793  0.98675201  1
  C  C80  1  0.28161532  0.24690431  0.78411185  1
  C  C81  1  0.17891806  0.28621291  0.74476756  1
  C  C82  1  0.19994575  0.29425313  0.66292231  1
  C  C83  1  0.21769022  0.21340132  0.61072772  1
  C  C84  1  0.23851684  0.26389835  0.54034227  1
  C  C85  1  0.26101080  0.20932654  0.46977077  1
  C  C86  1  0.26267588  0.09774288  0.46009456  1
  C  C87  1  0.30380482  0.19456018  0.34219499  1
  C  C88  1  0.32600882  0.22410985  0.26258382  1
  C  C89  1  0.22338134  0.21733314  0.21388326  1
  C  C90  1  0.28469627  0.26371094  0.40105985  1
  C  C91  1  0.23276924  0.37548426  0.55244457  1
  C  C92  1  0.24747177  0.72486147  0.79107187  1
  C  C93  1  0.28882266  0.82289200  0.74750135  1
  C  C94  1  0.29451025  0.79989118  0.66588141  1
  C  C95  1  0.21215291  0.78486312  0.61367211  1
  C  C96  1  0.26084625  0.76459687  0.54279155  1
  C  C97  1  0.20454394  0.74422779  0.47214352  1
  C  C98  1  0.09279447  0.74342993  0.46253822  1
  C  C99  1  0.18784137  0.70246858  0.34446337  1
  C  C100  1  0.21768457  0.67423153  0.26626179  1
  C  C101  1  0.21474595  0.77093673  0.21312386  1
  C  C102  1  0.25789104  0.72076329  0.40338076  1
  C  C103  1  0.37280111  0.76808296  0.55448927  1
  C  C104  1  0.75121826  0.22137892  0.21490349  1
  C  C105  1  0.71089872  0.32486467  0.25243484  1
  C  C106  1  0.70312676  0.30737651  0.33487970  1
  C  C107  1  0.78459153  0.29538163  0.38816955  1
  C  C108  1  0.73511860  0.26846672  0.45780779  1
  C  C109  1  0.78977989  0.24715562  0.52898026  1
  C  C110  1  0.90132818  0.24442038  0.53946228  1
  C  C111  1  0.80326399  0.20608020  0.65690272  1
  C  C112  1  0.77383537  0.18076675  0.73590335  1
  C  C113  1  0.78187978  0.28154386  0.78548110  1
  C  C114  1  0.73459036  0.22479628  0.59744094  1
  C  C115  1  0.62355362  0.26527605  0.44429960  1
  C  C116  1  0.77601481  0.75088498  0.21061600  1
  C  C117  1  0.67887284  0.70709724  0.25379042  1
  C  C118  1  0.70245896  0.70044525  0.33546561  1
  C  C119  1  0.71473377  0.78249085  0.38781066  1
  C  C120  1  0.73794624  0.73357235  0.45849751  1
  C  C121  1  0.75727031  0.78907698  0.52933857  1
  C  C122  1  0.75746281  0.90068133  0.53889711  1
  C  C123  1  0.79798049  0.80473462  0.65742636  1
  C  C124  1  0.82592781  0.77618240  0.73622864  1
  C  C125  1  0.72873245  0.78101492  0.78840180  1
  C  C126  1  0.78049668  0.73507497  0.59839510  1
  C  C127  1  0.73891637  0.62182944  0.44647749  1
  S  S128  1  0.29273560  0.06090243  0.37040331  1
  S  S129  1  0.05458403  0.71414609  0.37247711  1
  S  S130  1  0.93697257  0.21537706  0.62986580  1
  S  S131  1  0.78576873  0.93783229  0.62922036  1
  I  I132  1  0.25789799  0.97459226  0.02932348  1
  I  I133  1  0.24071224  0.49887740  0.95545440  1
  I  I134  1  0.75925351  0.00865881  0.96548982  1
  I  I135  1  0.74168527  0.46963989  0.00931703  1
  I  I136  1  0.03680122  0.25267099  0.99103864  1
  I  I137  1  0.98865230  0.75185372  0.02853159  1
  I  I138  1  0.50086996  0.25190576  0.04400125  1
  I  I139  1  0.51222811  0.75390550  0.96208651  1
  I  I140  1  0.04936317  0.99426479  0.82853730  1
  I  I141  1  0.96551136  0.01676949  0.17930767  1
  I  I142  1  0.96493655  0.53631500  0.82802377  1
  I  I143  1  0.98969849  0.46465479  0.18132302  1
  I  I144  1  0.49770378  0.05888401  0.82907172  1
  I  I145  1  0.53941873  0.96782456  0.17836515  1
  I  I146  1  0.51927384  0.47846668  0.81445633  1
  I  I147  1  0.43868823  0.51955704  0.16716562  1
  N  N148  1  0.26377117  0.22452541  0.86549611  1
  N  N149  1  0.24858314  0.25192667  0.13553819  1
  N  N150  1  0.20999969  0.39202316  0.62646011  1
  N  N151  1  0.22949998  0.75592619  0.87119225  1
  N  N152  1  0.24459619  0.73322138  0.13608353  1
  N  N153  1  0.39139892  0.78892908  0.62888067  1
  N  N154  1  0.77445719  0.23920676  0.13367496  1
  N  N155  1  0.74638537  0.25536046  0.86348946  1
  N  N156  1  0.60587827  0.28839121  0.37030524  1
  N  N157  1  0.74273780  0.77411410  0.13117344  1
  N  N158  1  0.76396278  0.74944043  0.86590951  1
  N  N159  1  0.71770193  0.60353526  0.37223801  1
