# generated using pymatgen
data_H19PbC12SI4N3
_symmetry_space_group_name_H-M   'P 1'
_cell_length_a   12.41788760
_cell_length_b   12.41530603
_cell_length_c   18.07362141
_cell_angle_alpha   89.09028937
_cell_angle_beta   89.13030193
_cell_angle_gamma   90.09915373
_symmetry_Int_Tables_number   1
_chemical_formula_structural   H19PbC12SI4N3
_chemical_formula_sum   'H76 Pb4 C48 S4 I16 N12'
_cell_volume   2785.76650597
_cell_formula_units_Z   4
loop_
 _symmetry_equiv_pos_site_id
 _symmetry_equiv_pos_as_xyz
  1  'x, y, z'
loop_
 _atom_site_type_symbol
 _atom_site_label
 _atom_site_symmetry_multiplicity
 _atom_site_fract_x
 _atom_site_fract_y
 _atom_site_fract_z
 _atom_site_occupancy
  H  H0  1  0.31785582  0.24239299  0.90130336  1
  H  H1  1  0.21517493  0.16467746  0.87513597  1
  H  H2  1  0.19473644  0.29415830  0.88936691  1
  H  H3  1  0.33443921  0.20207546  0.77071626  1
  H  H4  1  0.31648945  0.34252373  0.78586703  1
  H  H5  1  0.13421014  0.18284945  0.75009098  1
  H  H6  1  0.11749315  0.32283781  0.76412438  1
  H  H7  1  0.19989933  0.46259449  0.64749746  1
  H  H8  1  0.23925106  0.42187448  0.51398496  1
  H  H9  1  0.24632917  0.03384425  0.49500999  1
  H  H10  1  0.38656873  0.19722004  0.23861313  1
  H  H11  1  0.33668161  0.32696097  0.25995760  1
  H  H12  1  0.14994629  0.26954751  0.22764699  1
  H  H13  1  0.19507851  0.13545512  0.21249799  1
  H  H14  1  0.31082018  0.20395107  0.11273158  1
  H  H15  1  0.27193278  0.32936298  0.12792786  1
  H  H16  1  0.18229252  0.23981021  0.09830041  1
  H  H17  1  0.27628262  0.35664423  0.39565559  1
  H  H18  1  0.21067333  0.11570441  0.61730498  1
  H  H19  1  0.24149662  0.68266703  0.90232100  1
  H  H20  1  0.16448285  0.78597277  0.87414594  1
  H  H21  1  0.29422879  0.80574234  0.88818109  1
  H  H22  1  0.20112438  0.66697442  0.77219919  1
  H  H23  1  0.34179107  0.68447633  0.78700083  1
  H  H24  1  0.18294275  0.86709473  0.74802741  1
  H  H25  1  0.32282677  0.88384357  0.76192918  1
  H  H26  1  0.46260246  0.80126740  0.64676695  1
  H  H27  1  0.42193079  0.76133653  0.51411535  1
  H  H28  1  0.03414706  0.75469653  0.49462722  1
  H  H29  1  0.19728011  0.61348009  0.24161615  1
  H  H30  1  0.32700209  0.66338157  0.26196701  1
  H  H31  1  0.27035987  0.85019937  0.22565855  1
  H  H32  1  0.13601270  0.80524771  0.21168650  1
  H  H33  1  0.20369307  0.68903074  0.11426315  1
  H  H34  1  0.32911086  0.72870344  0.12804682  1
  H  H35  1  0.23915325  0.81788643  0.09700579  1
  H  H36  1  0.35694020  0.72450919  0.39639117  1
  H  H37  1  0.11579260  0.79134859  0.61631521  1
  H  H38  1  0.75766108  0.18301208  0.09902212  1
  H  H39  1  0.83689918  0.28447204  0.12527437  1
  H  H40  1  0.70782744  0.30700083  0.11062029  1
  H  H41  1  0.79810147  0.16710439  0.22999739  1
  H  H42  1  0.65780098  0.18468962  0.21411626  1
  H  H43  1  0.81668507  0.36769886  0.24961303  1
  H  H44  1  0.67663579  0.38371935  0.23510386  1
  H  H45  1  0.53685678  0.29723436  0.35196569  1
  H  H46  1  0.57790311  0.25501214  0.48494767  1
  H  H47  1  0.96575057  0.25130285  0.50557006  1
  H  H48  1  0.80152332  0.11414546  0.76087725  1
  H  H49  1  0.67176091  0.16390737  0.74004499  1
  H  H50  1  0.72973346  0.35106318  0.77243745  1
  H  H51  1  0.86359464  0.30532626  0.78752578  1
  H  H52  1  0.79406498  0.18922563  0.88726617  1
  H  H53  1  0.66933096  0.23000977  0.87229669  1
  H  H54  1  0.76015047  0.31831771  0.90178434  1
  H  H55  1  0.64202353  0.22441972  0.60374358  1
  H  H56  1  0.88372739  0.29342790  0.38293168  1
  H  H57  1  0.81726396  0.75783887  0.09776649  1
  H  H58  1  0.71599664  0.83686397  0.12605331  1
  H  H59  1  0.69308359  0.70772859  0.11192072  1
  H  H60  1  0.83308833  0.79825111  0.22840227  1
  H  H61  1  0.81542037  0.65786275  0.21294042  1
  H  H62  1  0.63263823  0.81636900  0.25203825  1
  H  H63  1  0.61620356  0.67649175  0.23796073  1
  H  H64  1  0.70195697  0.53626480  0.35311481  1
  H  H65  1  0.74521109  0.57701370  0.48467208  1
  H  H66  1  0.74948591  0.96501680  0.50539776  1
  H  H67  1  0.88658335  0.80119671  0.75848691  1
  H  H68  1  0.83660779  0.67135507  0.73862950  1
  H  H69  1  0.64985993  0.72868284  0.77453961  1
  H  H70  1  0.69522102  0.86316149  0.78811211  1
  H  H71  1  0.81123926  0.79520334  0.88568797  1
  H  H72  1  0.76995391  0.66992449  0.87245682  1
  H  H73  1  0.68193383  0.76111882  0.90300232  1
  H  H74  1  0.77610696  0.64146496  0.60326285  1
  H  H75  1  0.70796891  0.88336019  0.38383119  1
  Pb  Pb76  1  0.99739112  0.00064677  0.00575215  1
  Pb  Pb77  1  0.00015251  0.50145144  0.00015644  1
  Pb  Pb78  1  0.49850278  0.00189356  0.00041475  1
  Pb  Pb79  1  0.49937894  0.50111775  0.99431415  1
  C  C80  1  0.27635039  0.26362545  0.78808010  1
  C  C81  1  0.17383147  0.26187835  0.74266719  1
  C  C82  1  0.19730908  0.28217819  0.66219020  1
  C  C83  1  0.20767145  0.38157985  0.62648926  1
  C  C84  1  0.23391426  0.25378261  0.53996948  1
  C  C85  1  0.25528158  0.20883632  0.46753204  1
  C  C86  1  0.25884481  0.09897914  0.45495417  1
  C  C87  1  0.29441321  0.20536268  0.33972667  1
  C  C88  1  0.31631340  0.24060891  0.26135590  1
  C  C89  1  0.21979225  0.22040145  0.21196507  1
  C  C90  1  0.27562420  0.26893750  0.40032091  1
  C  C91  1  0.21403089  0.20224645  0.60784243  1
  C  C92  1  0.26312260  0.72480490  0.78844281  1
  C  C93  1  0.26184559  0.82769341  0.74117637  1
  C  C94  1  0.28217303  0.80495839  0.66108787  1
  C  C95  1  0.38157124  0.79394635  0.62578448  1
  C  C96  1  0.25388733  0.76738727  0.53969104  1
  C  C97  1  0.20908050  0.74565478  0.46762778  1
  C  C98  1  0.09925816  0.74187334  0.45497253  1
  C  C99  1  0.20567542  0.70596885  0.34077392  1
  C  C100  1  0.24078901  0.68384191  0.26288785  1
  C  C101  1  0.22083202  0.78037059  0.21148995  1
  C  C102  1  0.26924682  0.72511831  0.40096599  1
  C  C103  1  0.20232282  0.78795999  0.60700162  1
  C  C104  1  0.73661883  0.22498872  0.21213077  1
  C  C105  1  0.73775552  0.32797396  0.25714249  1
  C  C106  1  0.71735424  0.30496175  0.33772646  1
  C  C107  1  0.61797485  0.29195963  0.37310937  1
  C  C108  1  0.74583387  0.26677369  0.45985120  1
  C  C109  1  0.79042337  0.24512347  0.53243866  1
  C  C110  1  0.90016061  0.24072518  0.54542423  1
  C  C111  1  0.79293531  0.20715777  0.66026429  1
  C  C112  1  0.75796261  0.18466264  0.73857208  1
  C  C113  1  0.77856585  0.28092370  0.78805085  1
  C  C114  1  0.72970026  0.22562815  0.59946728  1
  C  C115  1  0.79726235  0.28891928  0.39226268  1
  C  C116  1  0.77518948  0.73657964  0.21171567  1
  C  C117  1  0.67221470  0.73751495  0.25885530  1
  C  C118  1  0.69522286  0.71703540  0.33891449  1
  C  C119  1  0.70796291  0.61752863  0.37389613  1
  C  C120  1  0.73402971  0.74521059  0.46014403  1
  C  C121  1  0.75572602  0.78975092  0.53227401  1
  C  C122  1  0.76007213  0.89952421  0.54512013  1
  C  C123  1  0.79438065  0.79236714  0.65932750  1
  C  C124  1  0.81623293  0.75757110  0.73732694  1
  C  C125  1  0.71976137  0.77821589  0.78856002  1
  C  C126  1  0.77544860  0.72915343  0.59894800  1
  C  C127  1  0.71191992  0.79684584  0.39306751  1
  S  S128  1  0.28711561  0.07052647  0.36455374  1
  S  S129  1  0.07082820  0.71329122  0.36519556  1
  S  S130  1  0.92773668  0.21333051  0.63604038  1
  S  S131  1  0.78813258  0.92720826  0.63507104  1
  I  I132  1  0.24769280  0.96636474  0.00116343  1
  I  I133  1  0.24952964  0.53642115  0.99623079  1
  I  I134  1  0.74802256  0.03878904  0.00375731  1
  I  I135  1  0.74978892  0.46561142  0.99716573  1
  I  I136  1  0.03521554  0.25081676  0.00249315  1
  I  I137  1  0.96329080  0.75089547  0.00337889  1
  I  I138  1  0.46270097  0.25147580  0.99605268  1
  I  I139  1  0.53368965  0.75181788  0.99845701  1
  I  I140  1  0.99735706  0.99649880  0.82692944  1
  I  I141  1  0.98324212  0.00019649  0.17946503  1
  I  I142  1  0.00064964  0.51778707  0.82415030  1
  I  I143  1  0.00989990  0.48895048  0.17702963  1
  I  I144  1  0.50151047  0.01600231  0.82419987  1
  I  I145  1  0.48868608  0.99480883  0.17708304  1
  I  I146  1  0.51838141  0.50488355  0.81949119  1
  I  I147  1  0.48041693  0.49773647  0.17273428  1
  N  N148  1  0.24966873  0.23990380  0.86814535  1
  N  N149  1  0.22980869  0.36324308  0.55301715  1
  N  N150  1  0.24787675  0.24989015  0.13310011  1
  N  N151  1  0.23949839  0.75126235  0.86796274  1
  N  N152  1  0.36327937  0.77125233  0.55284880  1
  N  N153  1  0.24968627  0.75220363  0.13310651  1
  N  N154  1  0.76105475  0.25119534  0.13209666  1
  N  N155  1  0.63643530  0.26916263  0.44650370  1
  N  N156  1  0.74908781  0.25293778  0.86694418  1
  N  N157  1  0.74892004  0.76104219  0.13221428  1
  N  N158  1  0.73116972  0.63581566  0.44674773  1
  N  N159  1  0.74757535  0.74968279  0.86703436  1
