# generated using pymatgen
data_H19PbC12SI4N3
_symmetry_space_group_name_H-M   'P 1'
_cell_length_a   12.37696582
_cell_length_b   12.26063408
_cell_length_c   17.72383517
_cell_angle_alpha   90.96734552
_cell_angle_beta   91.14717834
_cell_angle_gamma   91.04814779
_symmetry_Int_Tables_number   1
_chemical_formula_structural   H19PbC12SI4N3
_chemical_formula_sum   'H76 Pb4 C48 S4 I16 N12'
_cell_volume   2688.19291487
_cell_formula_units_Z   4
loop_
 _symmetry_equiv_pos_site_id
 _symmetry_equiv_pos_as_xyz
  1  'x, y, z'
loop_
 _atom_site_type_symbol
 _atom_site_label
 _atom_site_symmetry_multiplicity
 _atom_site_fract_x
 _atom_site_fract_y
 _atom_site_fract_z
 _atom_site_occupancy
  H  H0  1  0.29640140  0.21571049  0.89255396  1
  H  H1  1  0.17383239  0.27031321  0.89610401  1
  H  H2  1  0.28088827  0.34450521  0.86639758  1
  H  H3  1  0.16631384  0.28707906  0.75995973  1
  H  H4  1  0.18163450  0.14913020  0.78772388  1
  H  H5  1  0.37045178  0.30362875  0.74814331  1
  H  H6  1  0.38156697  0.16297883  0.76903291  1
  H  H7  1  0.31596478  0.01409395  0.66153570  1
  H  H8  1  0.25377202  0.46293413  0.49025605  1
  H  H9  1  0.21005636  0.48557300  0.35299821  1
  H  H10  1  0.16680716  0.38597627  0.23148361  1
  H  H11  1  0.11138512  0.25333170  0.24178430  1
  H  H12  1  0.30002208  0.17591505  0.24280120  1
  H  H13  1  0.35352635  0.30803475  0.22373203  1
  H  H14  1  0.25132540  0.30427756  0.10584497  1
  H  H15  1  0.19601138  0.18160967  0.12608310  1
  H  H16  1  0.33005342  0.19259499  0.11474792  1
  H  H17  1  0.21648869  0.14427728  0.37778804  1
  H  H18  1  0.28786233  0.36132954  0.61492636  1
  H  H19  1  0.19897658  0.69989121  0.89105290  1
  H  H20  1  0.27867948  0.81037641  0.89843215  1
  H  H21  1  0.32808878  0.68978468  0.86411460  1
  H  H22  1  0.29102707  0.82819176  0.76656354  1
  H  H23  1  0.15219105  0.81811870  0.79137473  1
  H  H24  1  0.29033173  0.62548210  0.73934213  1
  H  H25  1  0.15168538  0.61644158  0.76056985  1
  H  H26  1  0.00798504  0.69166081  0.65616816  1
  H  H27  1  0.45729386  0.74406541  0.49026270  1
  H  H28  1  0.48385755  0.78573081  0.35371756  1
  H  H29  1  0.38980993  0.83597265  0.23440087  1
  H  H30  1  0.26147918  0.89285130  0.24755383  1
  H  H31  1  0.17475758  0.70377795  0.22939137  1
  H  H32  1  0.30461941  0.65278614  0.20667174  1
  H  H33  1  0.31199733  0.78122898  0.10455306  1
  H  H34  1  0.18890901  0.83059425  0.12710042  1
  H  H35  1  0.20367815  0.69949725  0.09592169  1
  H  H36  1  0.14526534  0.78225983  0.37524356  1
  H  H37  1  0.35352847  0.71097607  0.61278251  1
  H  H38  1  0.77632514  0.20104694  0.10744964  1
  H  H39  1  0.72749500  0.32830106  0.10467395  1
  H  H40  1  0.65186134  0.22374541  0.13641602  1
  H  H41  1  0.71479636  0.33702712  0.23998998  1
  H  H42  1  0.85016771  0.32149340  0.21041193  1
  H  H43  1  0.70070322  0.13014438  0.25515822  1
  H  H44  1  0.83987774  0.12123216  0.23400210  1
  H  H45  1  0.98627746  0.19347135  0.34068553  1
  H  H46  1  0.54147961  0.23765218  0.51044315  1
  H  H47  1  0.51550859  0.27700915  0.64713278  1
  H  H48  1  0.61316117  0.33348527  0.76961439  1
  H  H49  1  0.74560012  0.38820616  0.76072895  1
  H  H50  1  0.82003179  0.19698216  0.75709112  1
  H  H51  1  0.68923203  0.14406874  0.77759379  1
  H  H52  1  0.69608811  0.24539272  0.89521562  1
  H  H53  1  0.81560098  0.30447788  0.87302424  1
  H  H54  1  0.80853982  0.16928085  0.88581732  1
  H  H55  1  0.85374316  0.30081362  0.62316539  1
  H  H56  1  0.64207789  0.21762536  0.38541399  1
  H  H57  1  0.80517687  0.79566451  0.10843895  1
  H  H58  1  0.69266326  0.71968497  0.10060238  1
  H  H59  1  0.80842378  0.66436963  0.13622614  1
  H  H60  1  0.67380366  0.70761214  0.23234653  1
  H  H61  1  0.68705974  0.84754346  0.20636480  1
  H  H62  1  0.87498705  0.70582326  0.26071541  1
  H  H63  1  0.88472765  0.84638580  0.24016040  1
  H  H64  1  0.80992604  0.99028603  0.34380884  1
  H  H65  1  0.75876671  0.53686318  0.50992491  1
  H  H66  1  0.72167874  0.50844745  0.64569800  1
  H  H67  1  0.66914525  0.60365992  0.76601109  1
  H  H68  1  0.61278964  0.73355929  0.75405804  1
  H  H69  1  0.80096062  0.82029372  0.76774610  1
  H  H70  1  0.85213259  0.68875198  0.78945745  1
  H  H71  1  0.72711054  0.68465901  0.89530249  1
  H  H72  1  0.68450569  0.81151614  0.87219744  1
  H  H73  1  0.81387796  0.79020431  0.90113348  1
  H  H74  1  0.71200436  0.85085671  0.62359060  1
  H  H75  1  0.78591300  0.64135472  0.38674192  1
  Pb  Pb76  1  1.00476738  0.00037640  0.99549090  1
  Pb  Pb77  1  0.98242383  0.49853996  0.99250447  1
  Pb  Pb78  1  0.50865482  0.00226385  0.99424940  1
  Pb  Pb79  1  0.48367223  0.49760084  0.01850037  1
  C  C80  1  0.22261600  0.22912796  0.78507064  1
  C  C81  1  0.32875868  0.22348999  0.74255590  1
  C  C82  1  0.30886391  0.19497935  0.66044418  1
  C  C83  1  0.30386218  0.08966651  0.63155268  1
  C  C84  1  0.26819097  0.22809067  0.53258295  1
  C  C85  1  0.24466238  0.28220706  0.46203445  1
  C  C86  1  0.24156388  0.39460482  0.45118589  1
  C  C87  1  0.20378493  0.31299109  0.33819885  1
  C  C88  1  0.18332313  0.30516326  0.25483267  1
  C  C89  1  0.28138214  0.25481477  0.21800246  1
  C  C90  1  0.22061652  0.23145079  0.39006909  1
  C  C91  1  0.28854986  0.27358752  0.60371006  1
  C  C92  1  0.22764590  0.77276831  0.78678504  1
  C  C93  1  0.21423803  0.67039714  0.73705400  1
  C  C94  1  0.18723144  0.69572463  0.65648524  1
  C  C95  1  0.08370219  0.70298058  0.62707186  1
  C  C96  1  0.22365922  0.73367125  0.52990872  1
  C  C97  1  0.27936640  0.75339987  0.46006554  1
  C  C98  1  0.39093956  0.75581701  0.45052488  1
  C  C99  1  0.31348024  0.79102981  0.33721179  1
  C  C100  1  0.30843788  0.81820822  0.25555218  1
  C  C101  1  0.25486541  0.72609697  0.20840892  1
  C  C102  1  0.23115745  0.77545539  0.38791538  1
  C  C103  1  0.26681248  0.71379331  0.60090067  1
  C  C104  1  0.77147253  0.27974980  0.21479934  1
  C  C105  1  0.77888755  0.17443816  0.25913047  1
  C  C106  1  0.80706450  0.19951518  0.34070222  1
  C  C107  1  0.91116368  0.20658657  0.36984271  1
  C  C108  1  0.77367316  0.24207169  0.46792171  1
  C  C109  1  0.71925066  0.26288037  0.53848937  1
  C  C110  1  0.60807867  0.25627821  0.54945317  1
  C  C111  1  0.68605204  0.29997296  0.66257089  1
  C  C112  1  0.69316072  0.31680912  0.74635218  1
  C  C113  1  0.74261384  0.21650617  0.78252865  1
  C  C114  1  0.76780548  0.29086460  0.61045333  1
  C  C115  1  0.72894218  0.22018070  0.39689770  1
  C  C116  1  0.73009636  0.77037024  0.21204520  1
  C  C117  1  0.83080332  0.78286446  0.26274360  1
  C  C118  1  0.80313527  0.80926699  0.34296213  1
  C  C119  1  0.79563445  0.91373814  0.37209844  1
  C  C120  1  0.76116569  0.77245423  0.46884683  1
  C  C121  1  0.74216055  0.71618791  0.53883173  1
  C  C122  1  0.74442692  0.60364825  0.54907267  1
  C  C123  1  0.70881165  0.68096653  0.66219113  1
  C  C124  1  0.68600390  0.68582048  0.74453067  1
  C  C125  1  0.77988130  0.73946108  0.78933955  1
  C  C126  1  0.71958001  0.76432865  0.61089244  1
  C  C127  1  0.78248341  0.72887830  0.39821841  1
  S  S128  1  0.27456821  0.08688153  0.53661040  1
  S  S129  1  0.08351504  0.73099004  0.53266616  1
  S  S130  1  0.91362897  0.23738096  0.46452462  1
  S  S131  1  0.76503353  0.91398558  0.46596435  1
  I  I132  1  0.25868501  0.99814944  0.96047128  1
  I  I133  1  0.23611746  0.49851632  0.04684412  1
  I  I134  1  0.76278126  0.99597404  0.04439283  1
  I  I135  1  0.73187910  0.49789648  0.97347445  1
  I  I136  1  0.02833411  0.25008363  0.00849416  1
  I  I137  1  0.01207930  0.74628650  0.96483148  1
  I  I138  1  0.50819576  0.24805530  0.95243072  1
  I  I139  1  0.49944360  0.75232655  0.04650040  1
  I  I140  1  0.95497492  0.01525353  0.82279204  1
  I  I141  1  0.07151224  0.99766585  0.17503402  1
  I  I142  1  0.97856651  0.45460662  0.81330313  1
  I  I143  1  0.95674660  0.52971114  0.17047723  1
  I  I144  1  0.54265063  0.94583845  0.82096039  1
  I  I145  1  0.49380251  0.07209208  0.16842317  1
  I  I146  1  0.43780735  0.52006102  0.83718565  1
  I  I147  1  0.52839917  0.47733744  0.19179695  1
  N  N148  1  0.24411354  0.26765778  0.86506488  1
  N  N149  1  0.21732975  0.41119185  0.37652078  1
  N  N150  1  0.26301133  0.23265479  0.13526732  1
  N  N151  1  0.26141436  0.74113934  0.86524947  1
  N  N152  1  0.40960648  0.77822273  0.37632015  1
  N  N153  1  0.23811504  0.76236762  0.12865836  1
  N  N154  1  0.72972879  0.25760401  0.13548013  1
  N  N155  1  0.58985939  0.27846963  0.62405177  1
  N  N156  1  0.76678472  0.23534664  0.86506867  1
  N  N157  1  0.76134656  0.73452059  0.13410579  1
  N  N158  1  0.72453472  0.58428764  0.62345184  1
  N  N159  1  0.74897098  0.75747569  0.87013226  1
