# generated using pymatgen
data_H18PbC12S2(I2N)2
_symmetry_space_group_name_H-M   'P 1'
_cell_length_a   12.36120502
_cell_length_b   12.36070994
_cell_length_c   17.76758317
_cell_angle_alpha   87.12260198
_cell_angle_beta   87.11753195
_cell_angle_gamma   90.55892179
_symmetry_Int_Tables_number   1
_chemical_formula_structural   H18PbC12S2(I2N)2
_chemical_formula_sum   'H72 Pb4 C48 S8 I16 N8'
_cell_volume   2707.70884335
_cell_formula_units_Z   4
loop_
 _symmetry_equiv_pos_site_id
 _symmetry_equiv_pos_as_xyz
  1  'x, y, z'
loop_
 _atom_site_type_symbol
 _atom_site_label
 _atom_site_symmetry_multiplicity
 _atom_site_fract_x
 _atom_site_fract_y
 _atom_site_fract_z
 _atom_site_occupancy
  H  H0  1  0.22655829  0.17087607  0.87311608  1
  H  H1  1  0.26602005  0.29458214  0.89823631  1
  H  H2  1  0.35719105  0.19534110  0.88264917  1
  H  H3  1  0.34152870  0.19945669  0.75480380  1
  H  H4  1  0.35778764  0.33600714  0.77983357  1
  H  H5  1  0.15652953  0.36364875  0.77557084  1
  H  H6  1  0.13804016  0.22441213  0.75898364  1
  H  H7  1  0.23982536  0.49591516  0.65895616  1
  H  H8  1  0.19191674  0.34556402  0.38254822  1
  H  H9  1  0.13530979  0.26823141  0.25286564  1
  H  H10  1  0.15900323  0.13116018  0.23428873  1
  H  H11  1  0.34028858  0.30326143  0.24269867  1
  H  H12  1  0.35641277  0.16907288  0.21117249  1
  H  H13  1  0.34932849  0.30897486  0.11048369  1
  H  H14  1  0.25134851  0.21586395  0.10564833  1
  H  H15  1  0.22187405  0.33931165  0.13770593  1
  H  H16  1  0.23998367  0.00283466  0.34562533  1
  H  H17  1  0.19362366  0.15174152  0.62455313  1
  H  H18  1  0.16073251  0.77807496  0.86231178  1
  H  H19  1  0.28419282  0.74862717  0.89434262  1
  H  H20  1  0.19110803  0.65062310  0.88951964  1
  H  H21  1  0.19679272  0.65966116  0.75730382  1
  H  H22  1  0.33098893  0.64357502  0.78880685  1
  H  H23  1  0.36884651  0.84099457  0.76569566  1
  H  H24  1  0.23176795  0.86465348  0.74714619  1
  H  H25  1  0.49716040  0.76000939  0.65433609  1
  H  H26  1  0.34822701  0.80640982  0.37542879  1
  H  H27  1  0.27551711  0.86200669  0.24100868  1
  H  H28  1  0.13629183  0.84345841  0.22443376  1
  H  H29  1  0.30054858  0.65851584  0.24519045  1
  H  H30  1  0.16401458  0.64221670  0.22014752  1
  H  H31  1  0.30470027  0.64284791  0.11734193  1
  H  H32  1  0.20544924  0.73400369  0.10175314  1
  H  H33  1  0.32913641  0.77348933  0.12688822  1
  H  H34  1  0.00406136  0.76017776  0.34106309  1
  H  H35  1  0.15443461  0.80808665  0.61746020  1
  H  H36  1  0.82914764  0.27344899  0.12689394  1
  H  H37  1  0.70544729  0.23400014  0.10176256  1
  H  H38  1  0.80467433  0.14281575  0.11734726  1
  H  H39  1  0.80053823  0.15848533  0.24519646  1
  H  H40  1  0.66399883  0.14221711  0.22015734  1
  H  H41  1  0.63632744  0.34346847  0.22444055  1
  H  H42  1  0.77555785  0.36198017  0.24101855  1
  H  H43  1  0.50408018  0.26017384  0.34106620  1
  H  H44  1  0.65444785  0.30809246  0.61746740  1
  H  H45  1  0.73181012  0.36469186  0.74714969  1
  H  H46  1  0.86887003  0.34095114  0.76571331  1
  H  H47  1  0.69672389  0.15971467  0.75728568  1
  H  H48  1  0.83089865  0.14355232  0.78881344  1
  H  H49  1  0.69097355  0.15065920  0.88949564  1
  H  H50  1  0.78411762  0.24860665  0.89435109  1
  H  H51  1  0.66069088  0.27813589  0.86229210  1
  H  H52  1  0.99716901  0.25999588  0.65434817  1
  H  H53  1  0.84824412  0.30640151  0.37544047  1
  H  H54  1  0.72194099  0.83930734  0.13769752  1
  H  H55  1  0.75137202  0.71584424  0.10565215  1
  H  H56  1  0.84938452  0.80891891  0.11048349  1
  H  H57  1  0.84032939  0.80322788  0.24270057  1
  H  H58  1  0.85641918  0.66903162  0.21118231  1
  H  H59  1  0.65899802  0.63117832  0.23429049  1
  H  H60  1  0.63534262  0.76825607  0.25286380  1
  H  H61  1  0.73998865  0.50283817  0.34562245  1
  H  H62  1  0.69361753  0.65173643  0.62456375  1
  H  H63  1  0.63802165  0.72443672  0.75899605  1
  H  H64  1  0.65657038  0.86366719  0.77558045  1
  H  H65  1  0.84150629  0.69940446  0.75479905  1
  H  H66  1  0.85781225  0.83594148  0.77984557  1
  H  H67  1  0.85717641  0.69524541  0.88264189  1
  H  H68  1  0.76603778  0.79451522  0.89824558  1
  H  H69  1  0.72653115  0.67083281  0.87310967  1
  H  H70  1  0.73984712  0.99590794  0.65896124  1
  H  H71  1  0.69191670  0.84556184  0.38255833  1
  Pb  Pb72  1  0.01352105  0.99800611  0.99637808  1
  Pb  Pb73  1  0.00201390  0.48648087  0.00365285  1
  Pb  Pb74  1  0.50202855  0.98650641  0.00363478  1
  Pb  Pb75  1  0.51351799  0.49800541  0.99637437  1
  C  C76  1  0.30148462  0.26642193  0.78287101  1
  C  C77  1  0.19406136  0.29415480  0.74845803  1
  C  C78  1  0.21238689  0.31791512  0.66481057  1
  C  C79  1  0.23440239  0.41958434  0.63156747  1
  C  C80  1  0.23149169  0.27795389  0.53688172  1
  C  C81  1  0.23184705  0.22105505  0.46758756  1
  C  C82  1  0.21146419  0.26103242  0.39547454  1
  C  C83  1  0.21285139  0.17995617  0.34127416  1
  C  C84  1  0.19414243  0.20241640  0.25912901  1
  C  C85  1  0.29983147  0.23671972  0.21613379  1
  C  C86  1  0.23531487  0.07920025  0.37310335  1
  C  C87  1  0.21170793  0.23710159  0.61042245  1
  C  C88  1  0.26332662  0.70013762  0.78385949  1
  C  C89  1  0.29759222  0.80583721  0.74086412  1
  C  C90  1  0.32004254  0.78713907  0.65871131  1
  C  C91  1  0.42078817  0.76468039  0.62686604  1
  C  C92  1  0.27893134  0.76817255  0.53240488  1
  C  C93  1  0.22202830  0.76853382  0.46310824  1
  C  C94  1  0.26287208  0.78831721  0.38957060  1
  C  C95  1  0.18205278  0.78762766  0.33519148  1
  C  C96  1  0.20580629  0.80595742  0.25154039  1
  C  C97  1  0.23357604  0.69853935  0.21711885  1
  C  C98  1  0.08039460  0.76560570  0.36844461  1
  C  C99  1  0.23895828  0.78854100  0.60451736  1
  C  C100  1  0.73357468  0.19852445  0.21712684  1
  C  C101  1  0.70583095  0.30594789  0.25154793  1
  C  C102  1  0.68207166  0.28762269  0.33519823  1
  C  C103  1  0.58041259  0.26560231  0.36844962  1
  C  C104  1  0.72204133  0.26852958  0.46311646  1
  C  C105  1  0.77894377  0.26816847  0.53241379  1
  C  C106  1  0.73897140  0.28854236  0.60452720  1
  C  C107  1  0.82005401  0.28713852  0.65871882  1
  C  C108  1  0.79760255  0.30583935  0.74087330  1
  C  C109  1  0.76326835  0.20015187  0.78385655  1
  C  C110  1  0.92079987  0.26467319  0.62687814  1
  C  C111  1  0.76288999  0.28831217  0.38958017  1
  C  C112  1  0.79985733  0.73669592  0.21613781  1
  C  C113  1  0.69415565  0.70242277  0.25913083  1
  C  C114  1  0.71285511  0.67995932  0.34127805  1
  C  C115  1  0.73531685  0.57919934  0.37310491  1
  C  C116  1  0.73184102  0.72104785  0.46759377  1
  C  C117  1  0.73148969  0.77794626  0.53688924  1
  C  C118  1  0.71170494  0.73709388  0.61043384  1
  C  C119  1  0.71239333  0.81791341  0.66481942  1
  C  C120  1  0.69406997  0.79415161  0.74846651  1
  C  C121  1  0.80148643  0.76638099  0.78287699  1
  C  C122  1  0.73441359  0.91957325  0.63157532  1
  C  C123  1  0.71146242  0.76103225  0.39548430  1
  S  S124  1  0.25394141  0.41689462  0.53552919  1
  S  S125  1  0.25480359  0.08263679  0.46771359  1
  S  S126  1  0.41733983  0.74521077  0.53225506  1
  S  S127  1  0.08309773  0.74607001  0.46447900  1
  S  S128  1  0.58310960  0.24606873  0.46448497  1
  S  S129  1  0.91735162  0.24520021  0.53226663  1
  S  S130  1  0.75479846  0.58263096  0.46771583  1
  S  S131  1  0.75394892  0.91688670  0.53553506  1
  I  I132  1  0.25309124  0.04362305  0.03576555  1
  I  I133  1  0.25704715  0.46157038  0.97132489  1
  I  I134  1  0.75705656  0.96154656  0.97131766  1
  I  I135  1  0.75308656  0.54361034  0.03577147  1
  I  I136  1  0.95639834  0.24692224  0.96418774  1
  I  I137  1  0.03845392  0.74296788  0.02868225  1
  I  I138  1  0.53843936  0.24298612  0.02869911  1
  I  I139  1  0.45642601  0.74693458  0.96420760  1
  I  I140  1  0.05873148  0.98589129  0.81973073  1
  I  I141  1  0.95497520  0.00477362  0.17331330  1
  I  I142  1  0.99525113  0.54501326  0.82673184  1
  I  I143  1  0.01403339  0.44126395  0.18030730  1
  I  I144  1  0.49523113  0.04502080  0.82670896  1
  I  I145  1  0.51403494  0.94127284  0.18028411  1
  I  I146  1  0.55871871  0.48584556  0.81971904  1
  I  I147  1  0.45497705  0.50478047  0.17329633  1
  N  N148  1  0.28608943  0.23006453  0.86464086  1
  N  N149  1  0.27868937  0.27819673  0.13755225  1
  N  N150  1  0.22186825  0.72126809  0.86245044  1
  N  N151  1  0.26995542  0.71394292  0.13535221  1
  N  N152  1  0.76995141  0.21392022  0.13535916  1
  N  N153  1  0.72179097  0.22129035  0.86244225  1
  N  N154  1  0.77873352  0.77816983  0.13755255  1
  N  N155  1  0.78608332  0.73000480  0.86464161  1
