# generated using pymatgen
data_H19PbC12SI4N3
_symmetry_space_group_name_H-M   'P 1'
_cell_length_a   12.43343188
_cell_length_b   12.43148847
_cell_length_c   18.17211881
_cell_angle_alpha   90.76272787
_cell_angle_beta   90.74669245
_cell_angle_gamma   90.26190826
_symmetry_Int_Tables_number   1
_chemical_formula_structural   H19PbC12SI4N3
_chemical_formula_sum   'H76 Pb4 C48 S4 I16 N12'
_cell_volume   2808.27390665
_cell_formula_units_Z   4
loop_
 _symmetry_equiv_pos_site_id
 _symmetry_equiv_pos_as_xyz
  1  'x, y, z'
loop_
 _atom_site_type_symbol
 _atom_site_label
 _atom_site_symmetry_multiplicity
 _atom_site_fract_x
 _atom_site_fract_y
 _atom_site_fract_z
 _atom_site_occupancy
  H  H0  1  0.19921498  0.19839993  0.88874733  1
  H  H1  1  0.32234095  0.25151557  0.90203321  1
  H  H2  1  0.21880589  0.32819448  0.87427344  1
  H  H3  1  0.31993326  0.15055397  0.78805922  1
  H  H4  1  0.33811870  0.29096770  0.77288959  1
  H  H5  1  0.12044647  0.17063323  0.76308082  1
  H  H6  1  0.13917983  0.30964378  0.74786470  1
  H  H7  1  0.20259067  0.02694052  0.65129076  1
  H  H8  1  0.24530143  0.06227716  0.51953151  1
  H  H9  1  0.25426359  0.44607940  0.48629751  1
  H  H10  1  0.30021755  0.46891344  0.34655824  1
  H  H11  1  0.37391510  0.34640899  0.23595546  1
  H  H12  1  0.38042968  0.20586196  0.24887443  1
  H  H13  1  0.17470654  0.33212323  0.21016266  1
  H  H14  1  0.17932275  0.19060270  0.22580109  1
  H  H15  1  0.18897779  0.23250236  0.09647880  1
  H  H16  1  0.30202255  0.30365145  0.11012812  1
  H  H17  1  0.30362932  0.17213433  0.12549514  1
  H  H18  1  0.21646547  0.37243997  0.61492320  1
  H  H19  1  0.20082294  0.79646888  0.89003222  1
  H  H20  1  0.25158256  0.67292380  0.89971873  1
  H  H21  1  0.32950878  0.77598396  0.87421162  1
  H  H22  1  0.15006807  0.67812704  0.78566619  1
  H  H23  1  0.28987096  0.66002525  0.76932715  1
  H  H24  1  0.17122520  0.87769625  0.76643130  1
  H  H25  1  0.31058331  0.86034300  0.75101254  1
  H  H26  1  0.02821878  0.79708003  0.65252092  1
  H  H27  1  0.06288645  0.75503908  0.51979360  1
  H  H28  1  0.44648992  0.74659860  0.48586453  1
  H  H29  1  0.46886122  0.70189363  0.34520233  1
  H  H30  1  0.34616447  0.62838888  0.23287483  1
  H  H31  1  0.20523206  0.62084297  0.24563775  1
  H  H32  1  0.33269191  0.82803053  0.21263769  1
  H  H33  1  0.19154991  0.82271124  0.22851104  1
  H  H34  1  0.23256381  0.81590393  0.09823771  1
  H  H35  1  0.30200362  0.70243725  0.10866039  1
  H  H36  1  0.17114705  0.70171382  0.12425632  1
  H  H37  1  0.37332478  0.78439303  0.61558230  1
  H  H38  1  0.80454449  0.30054765  0.11116047  1
  H  H39  1  0.74729620  0.17942903  0.09737322  1
  H  H40  1  0.67400555  0.28556358  0.12538589  1
  H  H41  1  0.84890317  0.18023083  0.21179226  1
  H  H42  1  0.70826463  0.16238736  0.22593135  1
  H  H43  1  0.82864761  0.37977812  0.23734781  1
  H  H44  1  0.68959795  0.36073025  0.25227051  1
  H  H45  1  0.97187894  0.30004804  0.34865608  1
  H  H46  1  0.93686406  0.25882714  0.48126093  1
  H  H47  1  0.55358737  0.24702117  0.51415514  1
  H  H48  1  0.53115961  0.20160983  0.65447018  1
  H  H49  1  0.65401949  0.12624699  0.76440855  1
  H  H50  1  0.79445941  0.11984169  0.75129083  1
  H  H51  1  0.66824993  0.32618356  0.78905229  1
  H  H52  1  0.80991183  0.32073916  0.77443111  1
  H  H53  1  0.76800261  0.31247529  0.90321551  1
  H  H54  1  0.69300281  0.20200688  0.89029052  1
  H  H55  1  0.82459303  0.19529227  0.87550984  1
  H  H56  1  0.62677517  0.28095465  0.38497307  1
  H  H57  1  0.70408423  0.80240812  0.10971742  1
  H  H58  1  0.82530232  0.74727634  0.09958548  1
  H  H59  1  0.71968034  0.67269022  0.12532493  1
  H  H60  1  0.82140800  0.85013054  0.21393842  1
  H  H61  1  0.83984196  0.71020396  0.22951547  1
  H  H62  1  0.62172032  0.82805863  0.23420450  1
  H  H63  1  0.64039479  0.68878723  0.24933788  1
  H  H64  1  0.69967471  0.97162933  0.34765199  1
  H  H65  1  0.74033519  0.93723382  0.48096037  1
  H  H66  1  0.75401173  0.55402719  0.51422538  1
  H  H67  1  0.79944170  0.53205906  0.65532542  1
  H  H68  1  0.87202078  0.65501940  0.76741384  1
  H  H69  1  0.87833019  0.79607008  0.75504920  1
  H  H70  1  0.67176259  0.66697428  0.78663303  1
  H  H71  1  0.67658452  0.80839698  0.77146769  1
  H  H72  1  0.68215694  0.76783746  0.90129441  1
  H  H73  1  0.79405266  0.69595949  0.89162840  1
  H  H74  1  0.79813379  0.82701282  0.87633574  1
  H  H75  1  0.71929487  0.62672290  0.38429057  1
  Pb  Pb76  1  0.99759468  -0.00054861  0.00814830  1
  Pb  Pb77  1  0.00362368  0.49938645  0.00058518  1
  Pb  Pb78  1  0.49499975  -0.00101666  0.00067309  1
  Pb  Pb79  1  0.50440848  0.50160683  0.99122455  1
  C  C80  1  0.27999212  0.22919754  0.78921269  1
  C  C81  1  0.17764661  0.23045987  0.74198056  1
  C  C82  1  0.20073400  0.20793371  0.66263918  1
  C  C83  1  0.21087991  0.10725170  0.62941175  1
  C  C84  1  0.23862099  0.23113158  0.54141316  1
  C  C85  1  0.26053695  0.27245435  0.46930470  1
  C  C86  1  0.26642758  0.37907044  0.44820137  1
  C  C87  1  0.29103792  0.39127844  0.37287984  1
  C  C88  1  0.30410774  0.29509686  0.33561310  1
  C  C89  1  0.32846524  0.27669088  0.25620879  1
  C  C90  1  0.22666913  0.26084957  0.20924173  1
  C  C91  1  0.21847920  0.28568172  0.60740818  1
  C  C92  1  0.22911363  0.71783123  0.78781417  1
  C  C93  1  0.23123198  0.82160058  0.74378838  1
  C  C94  1  0.20899831  0.79996536  0.66369068  1
  C  C95  1  0.10830832  0.78964138  0.63023898  1
  C  C96  1  0.23183772  0.76195250  0.54163718  1
  C  C97  1  0.27279766  0.73960679  0.46901574  1
  C  C98  1  0.37931253  0.73400931  0.44767017  1
  C  C99  1  0.39129214  0.70972101  0.37185850  1
  C  C100  1  0.29496657  0.69627401  0.33439566  1
  C  C101  1  0.27642956  0.67294282  0.25427280  1
  C  C102  1  0.26116815  0.77587655  0.21027516  1
  C  C103  1  0.28657475  0.78242104  0.60800648  1
  C  C104  1  0.77044761  0.22051229  0.21032978  1
  C  C105  1  0.76881442  0.32231983  0.25811679  1
  C  C106  1  0.79123887  0.29879690  0.33738725  1
  C  C107  1  0.89190906  0.29029727  0.37081027  1
  C  C108  1  0.76822751  0.26024894  0.45852833  1
  C  C109  1  0.72706126  0.23822530  0.53067473  1
  C  C110  1  0.62051986  0.23334712  0.55206007  1
  C  C111  1  0.60852476  0.20930353  0.62751282  1
  C  C112  1  0.70481031  0.19558803  0.66452220  1
  C  C113  1  0.72359115  0.17173083  0.74396671  1
  C  C114  1  0.73921817  0.27384558  0.79069349  1
  C  C115  1  0.71356888  0.27954714  0.39245412  1
  C  C116  1  0.78172226  0.77105603  0.21167194  1
  C  C117  1  0.67859929  0.76847802  0.25639380  1
  C  C118  1  0.70082035  0.79093123  0.33639503  1
  C  C119  1  0.70913258  0.89172745  0.37000766  1
  C  C120  1  0.73908876  0.76843435  0.45835838  1
  C  C121  1  0.76155703  0.72760387  0.53093827  1
  C  C122  1  0.76726181  0.62113908  0.55242378  1
  C  C123  1  0.79139993  0.60938014  0.62831093  1
  C  C124  1  0.80443780  0.70573490  0.66579597  1
  C  C125  1  0.82696703  0.72440590  0.74600520  1
  C  C126  1  0.72350860  0.73879578  0.78960174  1
  C  C127  1  0.71992229  0.71352827  0.39189011  1
  S  S128  1  0.28584496  0.18821672  0.39447833  1
  S  S129  1  0.18834104  0.71390294  0.39377163  1
  S  S130  1  0.81147239  0.21252538  0.60532984  1
  S  S131  1  0.78646450  0.81231278  0.60630719  1
  I  I132  1  0.24546607  0.95790859  0.99589546  1
  I  I133  1  0.25477105  0.52906882  1.00008556  1
  I  I134  1  0.74666342  0.02343443  0.01293844  1
  I  I135  1  0.75475328  0.46776609  0.98932838  1
  I  I136  1  0.03486672  0.24853298  0.00919760  1
  I  I137  1  0.96776002  0.74826248  0.99866751  1
  I  I138  1  0.47914183  0.24939575  0.98761890  1
  I  I139  1  0.53864395  0.75079389  0.00199523  1
  I  I140  1  0.96712860  1.00003147  0.82982857  1
  I  I141  1  0.01928867  0.99845458  0.18013150  1
  I  I142  1  0.00901496  0.47820742  0.82609345  1
  I  I143  1  0.00968724  0.52262626  0.17626493  1
  I  I144  1  0.49646336  0.97606979  0.82612355  1
  I  I145  1  0.48664296  0.02279843  0.17591578  1
  I  I146  1  0.48738078  0.50124268  0.81851772  1
  I  I147  1  0.52878686  0.49788534  0.16861002  1
  N  N148  1  0.25342657  0.25320856  0.86840421  1
  N  N149  1  0.23359068  0.12253545  0.55660251  1
  N  N150  1  0.25725615  0.24084198  0.13038178  1
  N  N151  1  0.25402745  0.74179204  0.86761722  1
  N  N152  1  0.12329081  0.76691193  0.55702165  1
  N  N153  1  0.24045744  0.74765645  0.13058486  1
  N  N154  1  0.74766760  0.24828363  0.13123422  1
  N  N155  1  0.87679126  0.26693233  0.44355080  1
  N  N156  1  0.75768545  0.24388480  0.86980784  1
  N  N157  1  0.75655671  0.74693737  0.13189265  1
  N  N158  1  0.73230341  0.87694737  0.44318456  1
  N  N159  1  0.75079299  0.75872159  0.86945856  1
