# generated using pymatgen
data_H19PbC12SI4N3
_symmetry_space_group_name_H-M   'P 1'
_cell_length_a   12.38581978
_cell_length_b   12.39945950
_cell_length_c   17.99546188
_cell_angle_alpha   91.55133536
_cell_angle_beta   91.38102876
_cell_angle_gamma   90.28798268
_symmetry_Int_Tables_number   1
_chemical_formula_structural   H19PbC12SI4N3
_chemical_formula_sum   'H76 Pb4 C48 S4 I16 N12'
_cell_volume   2761.83745925
_cell_formula_units_Z   4
loop_
 _symmetry_equiv_pos_site_id
 _symmetry_equiv_pos_as_xyz
  1  'x, y, z'
loop_
 _atom_site_type_symbol
 _atom_site_label
 _atom_site_symmetry_multiplicity
 _atom_site_fract_x
 _atom_site_fract_y
 _atom_site_fract_z
 _atom_site_occupancy
  H  H0  1  0.30574849  0.21719868  0.89073052  1
  H  H1  1  0.18061752  0.26543299  0.89940808  1
  H  H2  1  0.28126838  0.34399609  0.87093565  1
  H  H3  1  0.16485435  0.29331675  0.76622717  1
  H  H4  1  0.18450826  0.15505611  0.78734178  1
  H  H5  1  0.36560345  0.31365372  0.74695539  1
  H  H6  1  0.38408314  0.17563887  0.76764389  1
  H  H7  1  0.31025771  0.02356249  0.66649984  1
  H  H8  1  0.25350021  0.45812392  0.49148905  1
  H  H9  1  0.20828413  0.47567331  0.34393903  1
  H  H10  1  0.11262302  0.29913123  0.24289496  1
  H  H11  1  0.17161523  0.17281638  0.26182652  1
  H  H12  1  0.35466262  0.24673235  0.23028273  1
  H  H13  1  0.29600298  0.37503594  0.21398484  1
  H  H14  1  0.18489592  0.29092696  0.11448452  1
  H  H15  1  0.23684553  0.17104130  0.13134725  1
  H  H16  1  0.31626541  0.26771594  0.09994980  1
  H  H17  1  0.22480345  0.14585150  0.39302818  1
  H  H18  1  0.28861940  0.36481335  0.61504120  1
  H  H19  1  0.21596615  0.69218551  0.88848278  1
  H  H20  1  0.26712738  0.81659004  0.90169437  1
  H  H21  1  0.34376296  0.71488324  0.86941093  1
  H  H22  1  0.29565160  0.83283213  0.76955238  1
  H  H23  1  0.15664875  0.81384010  0.78976425  1
  H  H24  1  0.31314569  0.63288885  0.74232468  1
  H  H25  1  0.17522645  0.61404946  0.76305749  1
  H  H26  1  0.02279536  0.68765482  0.66489550  1
  H  H27  1  0.45763239  0.74538819  0.49049404  1
  H  H28  1  0.47554036  0.79214945  0.34485310  1
  H  H29  1  0.29887567  0.88866236  0.24788364  1
  H  H30  1  0.17235664  0.82892485  0.26496505  1
  H  H31  1  0.24446261  0.64690874  0.22593744  1
  H  H32  1  0.37403448  0.70511049  0.21267003  1
  H  H33  1  0.29297299  0.81727244  0.11712936  1
  H  H34  1  0.17191917  0.76533231  0.13106326  1
  H  H35  1  0.26830121  0.68594499  0.09745177  1
  H  H36  1  0.14514843  0.77646808  0.39450655  1
  H  H37  1  0.36447651  0.71043902  0.61319917  1
  H  H38  1  0.78082167  0.19237555  0.10925662  1
  H  H39  1  0.73339131  0.31759729  0.10055492  1
  H  H40  1  0.65423663  0.21783547  0.12983199  1
  H  H41  1  0.70596888  0.33456332  0.23395439  1
  H  H42  1  0.84420487  0.31498741  0.21198113  1
  H  H43  1  0.68633024  0.13383505  0.25347525  1
  H  H44  1  0.82435507  0.11602908  0.23187167  1
  H  H45  1  0.97672422  0.19304875  0.33211762  1
  H  H46  1  0.54258346  0.24566969  0.50923917  1
  H  H47  1  0.52472010  0.29008405  0.65645278  1
  H  H48  1  0.70089627  0.38656529  0.75789535  1
  H  H49  1  0.82759783  0.32868272  0.73849670  1
  H  H50  1  0.75402337  0.14476272  0.76913369  1
  H  H51  1  0.62556735  0.20303172  0.78608593  1
  H  H52  1  0.71029772  0.31356445  0.88599462  1
  H  H53  1  0.82988066  0.26107373  0.86864021  1
  H  H54  1  0.73268790  0.18202238  0.89980674  1
  H  H55  1  0.85513690  0.27790210  0.60685719  1
  H  H56  1  0.63559769  0.20950816  0.38570772  1
  H  H57  1  0.80949506  0.78237285  0.11149577  1
  H  H58  1  0.68403218  0.73360072  0.09816990  1
  H  H59  1  0.78395767  0.65528813  0.13028779  1
  H  H60  1  0.66720064  0.70475045  0.23060690  1
  H  H61  1  0.68685846  0.84340049  0.21026390  1
  H  H62  1  0.86767986  0.68674105  0.25708181  1
  H  H63  1  0.88639452  0.82465001  0.23689119  1
  H  H64  1  0.81138126  0.97651180  0.33565421  1
  H  H65  1  0.75277189  0.54203691  0.50898530  1
  H  H66  1  0.70644467  0.52446786  0.65459765  1
  H  H67  1  0.61193178  0.70108078  0.75235791  1
  H  H68  1  0.67137355  0.82755390  0.73525643  1
  H  H69  1  0.85375806  0.75621890  0.77367566  1
  H  H70  1  0.79586211  0.62654006  0.78714991  1
  H  H71  1  0.68362618  0.70778920  0.88283152  1
  H  H72  1  0.73608634  0.82877377  0.86886775  1
  H  H73  1  0.81522464  0.73236484  0.90227889  1
  H  H74  1  0.72448276  0.85439473  0.60579446  1
  H  H75  1  0.79026350  0.63500590  0.38661114  1
  Pb  Pb76  1  0.00030432  0.99910846  0.99428722  1
  Pb  Pb77  1  0.00147740  0.49832067  0.00072584  1
  Pb  Pb78  1  0.49971505  0.99874269  0.00056980  1
  Pb  Pb79  1  0.50265757  0.49950701  0.00472158  1
  C  C80  1  0.22366088  0.23468864  0.78694702  1
  C  C81  1  0.32722624  0.23325679  0.74267064  1
  C  C82  1  0.30486331  0.20221992  0.66242009  1
  C  C83  1  0.29844333  0.09693201  0.63579099  1
  C  C84  1  0.26634007  0.22991034  0.53590370  1
  C  C85  1  0.24596932  0.28269861  0.46648447  1
  C  C86  1  0.24137302  0.39234547  0.45109838  1
  C  C87  1  0.21809629  0.40162048  0.37412792  1
  C  C88  1  0.20879674  0.29815356  0.34301498  1
  C  C89  1  0.18655990  0.26052767  0.26464231  1
  C  C90  1  0.27983801  0.28803066  0.21433583  1
  C  C91  1  0.28621249  0.27768360  0.60546294  1
  C  C92  1  0.23575949  0.77428351  0.78790294  1
  C  C93  1  0.23307537  0.67109106  0.73976074  1
  C  C94  1  0.20178455  0.69350579  0.66049830  1
  C  C95  1  0.09634716  0.69987421  0.63449047  1
  C  C96  1  0.22933585  0.73292505  0.53532967  1
  C  C97  1  0.28209646  0.75367134  0.46645850  1
  C  C98  1  0.39185521  0.75834238  0.45087078  1
  C  C99  1  0.40125046  0.78227315  0.37479710  1
  C  C100  1  0.29762813  0.79183359  0.34445081  1
  C  C101  1  0.26004587  0.81442657  0.26700767  1
  C  C102  1  0.28714313  0.72169250  0.21317134  1
  C  C103  1  0.27725499  0.71270281  0.60395521  1
  C  C104  1  0.76456513  0.27577333  0.21293064  1
  C  C105  1  0.76658266  0.17259982  0.25727318  1
  C  C106  1  0.79801583  0.19552623  0.33737026  1
  C  C107  1  0.90355013  0.20356297  0.36341393  1
  C  C108  1  0.77097746  0.23404201  0.46412137  1
  C  C109  1  0.71831223  0.25400483  0.53379423  1
  C  C110  1  0.60851057  0.25791873  0.54941086  1
  C  C111  1  0.59910981  0.28101081  0.62641185  1
  C  C112  1  0.70264465  0.29088695  0.65732879  1
  C  C113  1  0.73996319  0.31302211  0.73575036  1
  C  C114  1  0.71263774  0.21937659  0.78559048  1
  C  C115  1  0.72280403  0.21311628  0.39484133  1
  C  C116  1  0.72608188  0.76420863  0.21208490  1
  C  C117  1  0.82934984  0.76667161  0.26007618  1
  C  C118  1  0.80672591  0.79751959  0.33950688  1
  C  C119  1  0.79951549  0.90280972  0.36562628  1
  C  C120  1  0.76697358  0.77003956  0.46459127  1
  C  C121  1  0.74651324  0.71745831  0.53347444  1
  C  C122  1  0.74140767  0.60786182  0.54893344  1
  C  C123  1  0.71773953  0.59870405  0.62509981  1
  C  C124  1  0.70875698  0.70227529  0.65565050  1
  C  C125  1  0.68612493  0.74001698  0.73314027  1
  C  C126  1  0.77911235  0.71331160  0.78667019  1
  C  C127  1  0.78777471  0.72210491  0.39596467  1
  S  S128  1  0.27042910  0.09033794  0.54196836  1
  S  S129  1  0.08963431  0.72847014  0.54176435  1
  S  S130  1  0.91069434  0.23239399  0.45715600  1
  S  S131  1  0.77000421  0.90956052  0.45822844  1
  I  I132  1  0.25040677  0.95933035  0.99818043  1
  I  I133  1  0.25217415  0.53819248  0.99888808  1
  I  I134  1  0.75052710  0.03942095  0.99992956  1
  I  I135  1  0.75156309  0.45680001  0.00167404  1
  I  I136  1  0.04204061  0.24907356  0.99844197  1
  I  I137  1  0.96198714  0.74852691  1.00052259  1
  I  I138  1  0.46056765  0.24895330  -0.00006506  1
  I  I139  1  0.54056075  0.74916336  0.00180609  1
  I  I140  1  0.97503014  0.99425301  0.81891035  1
  I  I141  1  0.02388376  0.00213908  0.17397346  1
  I  I142  1  0.99844936  0.47782313  0.82337529  1
  I  I143  1  0.01275883  0.51044447  0.17819705  1
  I  I144  1  0.49944898  0.97674119  0.82360647  1
  I  I145  1  0.48945430  0.01613935  0.17827783  1
  I  I146  1  0.49893015  0.50433607  0.82501068  1
  I  I147  1  0.52206549  0.49993169  0.17930871  1
  N  N148  1  0.24895378  0.26712362  0.86650578  1
  N  N149  1  0.25293138  0.25280208  0.13547067  1
  N  N150  1  0.22611532  0.22724200  0.39970149  1
  N  N151  1  0.26752497  0.74809733  0.86640610  1
  N  N152  1  0.25350473  0.74935759  0.13516375  1
  N  N153  1  0.22664485  0.77384730  0.40064961  1
  N  N154  1  0.73142973  0.24977167  0.13363261  1
  N  N155  1  0.74796956  0.24549617  0.86454344  1
  N  N156  1  0.77371680  0.27387672  0.60052320  1
  N  N157  1  0.75228561  0.73206528  0.13350435  1
  N  N158  1  0.75164470  0.74715966  0.86474599  1
  N  N159  1  0.72686026  0.77301029  0.59948700  1
