# generated using pymatgen
data_H26PbC18(I2N)2
_symmetry_space_group_name_H-M   'P 1'
_cell_length_a   12.18964780
_cell_length_b   12.14644884
_cell_length_c   21.32725890
_cell_angle_alpha   90.08918174
_cell_angle_beta   89.98220295
_cell_angle_gamma   89.75660545
_symmetry_Int_Tables_number   1
_chemical_formula_structural   H26PbC18(I2N)2
_chemical_formula_sum   'H104 Pb4 C72 I16 N8'
_cell_volume   3157.70138286
_cell_formula_units_Z   4
loop_
 _symmetry_equiv_pos_site_id
 _symmetry_equiv_pos_as_xyz
  1  'x, y, z'
loop_
 _atom_site_type_symbol
 _atom_site_label
 _atom_site_symmetry_multiplicity
 _atom_site_fract_x
 _atom_site_fract_y
 _atom_site_fract_z
 _atom_site_occupancy
  H  H0  1  0.17278941  0.37538690  0.85586627  1
  H  H1  1  0.31145539  0.37324006  0.85882756  1
  H  H2  1  0.23653182  0.31983115  0.91724120  1
  H  H3  1  0.16910578  0.17289274  0.85834552  1
  H  H4  1  0.31504960  0.17377530  0.85470587  1
  H  H5  1  0.22210525  0.13793793  0.75105683  1
  H  H6  1  0.16043480  0.26908318  0.75371753  1
  H  H7  1  0.34842354  0.35749397  0.75171724  1
  H  H8  1  0.40912607  0.22485476  0.75314787  1
  H  H9  1  0.25704478  0.42826954  0.65635678  1
  H  H10  1  0.24044279  0.41777496  0.54127069  1
  H  H11  1  0.22971036  0.08621849  0.46374533  1
  H  H12  1  0.22438833  0.07272276  0.34788943  1
  H  H13  1  0.30073803  0.13817905  0.24688613  1
  H  H14  1  0.36179018  0.26956166  0.24156291  1
  H  H15  1  0.11474029  0.22809325  0.26064690  1
  H  H16  1  0.17421073  0.35845665  0.24976028  1
  H  H17  1  0.17850271  0.16857870  0.15312542  1
  H  H18  1  0.08447137  0.28008658  0.15274452  1
  H  H19  1  0.32568654  0.30387328  0.13607556  1
  H  H20  1  0.22644302  0.30963063  0.08155465  1
  H  H21  1  0.23306353  0.40576799  0.13732722  1
  H  H22  1  0.37011980  0.39400672  0.33375114  1
  H  H23  1  0.37426844  0.40804044  0.44959632  1
  H  H24  1  0.38250190  0.09248753  0.54394970  1
  H  H25  1  0.39931611  0.10335753  0.65971072  1
  H  H26  1  0.37349043  0.82443828  0.85574183  1
  H  H27  1  0.36922656  0.68478454  0.85961305  1
  H  H28  1  0.31719561  0.76343385  0.91758005  1
  H  H29  1  0.17132822  0.83115864  0.85886018  1
  H  H30  1  0.17177778  0.68473267  0.85464448  1
  H  H31  1  0.13707433  0.77886601  0.75121699  1
  H  H32  1  0.26744769  0.84017996  0.75436622  1
  H  H33  1  0.35650913  0.65132689  0.75160489  1
  H  H34  1  0.22497556  0.59066488  0.75297231  1
  H  H35  1  0.42641513  0.74393496  0.65660866  1
  H  H36  1  0.41593577  0.76033436  0.54101412  1
  H  H37  1  0.08549008  0.76922605  0.46344596  1
  H  H38  1  0.07289787  0.77417895  0.34804737  1
  H  H39  1  0.13908798  0.69908143  0.24705689  1
  H  H40  1  0.27067684  0.63787551  0.24131071  1
  H  H41  1  0.22682845  0.88551771  0.26136391  1
  H  H42  1  0.35732836  0.82622463  0.25005568  1
  H  H43  1  0.16868663  0.82058073  0.15330976  1
  H  H44  1  0.27716094  0.91732506  0.15356343  1
  H  H45  1  0.30548629  0.67619708  0.13502612  1
  H  H46  1  0.31257153  0.77736622  0.08219649  1
  H  H47  1  0.40652465  0.76859889  0.13933458  1
  H  H48  1  0.39453479  0.62866548  0.33368899  1
  H  H49  1  0.40807692  0.62492053  0.44970747  1
  H  H50  1  0.09320853  0.61784214  0.54401741  1
  H  H51  1  0.10384186  0.60125439  0.65965844  1
  H  H52  1  0.62605417  0.31689239  0.13879527  1
  H  H53  1  0.62919709  0.17787737  0.14242662  1
  H  H54  1  0.68238672  0.24171044  0.08091559  1
  H  H55  1  0.82596738  0.32525215  0.13929316  1
  H  H56  1  0.82925465  0.17887866  0.14573761  1
  H  H57  1  0.86079720  0.27635448  0.24772326  1
  H  H58  1  0.73000570  0.33795456  0.24387712  1
  H  H59  1  0.64223419  0.14937437  0.24832327  1
  H  H60  1  0.77424372  0.08847837  0.24703710  1
  H  H61  1  0.57133445  0.24258310  0.34361602  1
  H  H62  1  0.58227878  0.26011211  0.45881157  1
  H  H63  1  0.91324612  0.27113637  0.53605986  1
  H  H64  1  0.92725511  0.27460082  0.65198960  1
  H  H65  1  0.86200571  0.19674702  0.75280184  1
  H  H66  1  0.73206978  0.13364641  0.75738373  1
  H  H67  1  0.77022052  0.38267507  0.74168421  1
  H  H68  1  0.64079563  0.32092058  0.75088739  1
  H  H69  1  0.82824638  0.31613077  0.84837106  1
  H  H70  1  0.71290085  0.40596934  0.85014374  1
  H  H71  1  0.70336282  0.16279382  0.86338541  1
  H  H72  1  0.68550868  0.25773755  0.91824026  1
  H  H73  1  0.59480041  0.24593205  0.86016058  1
  H  H74  1  0.60665119  0.12971308  0.66599514  1
  H  H75  1  0.59217926  0.12698003  0.55016970  1
  H  H76  1  0.90685588  0.11872811  0.45557053  1
  H  H77  1  0.89567609  0.10104560  0.33982552  1
  H  H78  1  0.68671462  0.62443783  0.14012158  1
  H  H79  1  0.82544789  0.62966857  0.14249368  1
  H  H80  1  0.75798086  0.68161476  0.08147588  1
  H  H81  1  0.67574898  0.82619137  0.13895932  1
  H  H82  1  0.82109093  0.82951367  0.14600932  1
  H  H83  1  0.72295698  0.86207616  0.24768718  1
  H  H84  1  0.66268265  0.73071190  0.24385491  1
  H  H85  1  0.85120892  0.64262589  0.24860276  1
  H  H86  1  0.91075805  0.77498791  0.24748064  1
  H  H87  1  0.75653857  0.57267751  0.34321827  1
  H  H88  1  0.73914061  0.58353461  0.45882252  1
  H  H89  1  0.72996198  0.91540383  0.53656403  1
  H  H90  1  0.72573928  0.92909222  0.65210872  1
  H  H91  1  0.80262816  0.86293865  0.75294075  1
  H  H92  1  0.86540408  0.73187674  0.75772960  1
  H  H93  1  0.61709429  0.77207538  0.74217219  1
  H  H94  1  0.67883286  0.64201383  0.75212870  1
  H  H95  1  0.68351674  0.83235973  0.84843861  1
  H  H96  1  0.59435200  0.71723432  0.85099312  1
  H  H97  1  0.83709073  0.70784308  0.86430334  1
  H  H98  1  0.74278266  0.69033433  0.91910221  1
  H  H99  1  0.75631437  0.59869655  0.86113273  1
  H  H100  1  0.87112423  0.60632945  0.66623635  1
  H  H101  1  0.87404959  0.59188984  0.55021885  1
  H  H102  1  0.88063862  0.90759466  0.45605392  1
  H  H103  1  0.89763005  0.89664245  0.34040532  1
  Pb  Pb104  1  0.99212550  0.00515316  0.00180217  1
  Pb  Pb105  1  0.99497287  0.50028032  0.99860483  1
  Pb  Pb106  1  0.48962539  0.00151664  0.99869839  1
  Pb  Pb107  1  0.49437207  0.50802710  0.00340439  1
  C  C108  1  0.24027959  0.21650878  0.83907082  1
  C  C109  1  0.23410554  0.22258082  0.76808152  1
  C  C110  1  0.33673084  0.27140411  0.73685093  1
  C  C111  1  0.32962965  0.26658560  0.66640292  1
  C  C112  1  0.28497521  0.35415792  0.63201700  1
  C  C113  1  0.27587202  0.34853950  0.56692118  1
  C  C114  1  0.31027998  0.25414191  0.53417676  1
  C  C115  1  0.30338587  0.24766720  0.46504701  1
  C  C116  1  0.26142438  0.15357038  0.43526495  1
  C  C117  1  0.25836456  0.14621821  0.37009013  1
  C  C118  1  0.29824412  0.23182271  0.33253386  1
  C  C119  1  0.29215553  0.22444895  0.26213855  1
  C  C120  1  0.18298073  0.27070355  0.23731406  1
  C  C121  1  0.16683958  0.25462090  0.16748391  1
  C  C122  1  0.33893932  0.32618884  0.36217641  1
  C  C123  1  0.34099603  0.33442341  0.42737445  1
  C  C124  1  0.35377082  0.16577308  0.56877022  1
  C  C125  1  0.36362608  0.17223406  0.63375510  1
  C  C126  1  0.21462916  0.75944543  0.83931266  1
  C  C127  1  0.22131692  0.76629551  0.76835871  1
  C  C128  1  0.27069908  0.66343729  0.73681720  1
  C  C129  1  0.26605702  0.67098280  0.66640364  1
  C  C130  1  0.35314112  0.71559028  0.63200345  1
  C  C131  1  0.34757290  0.72451794  0.56691792  1
  C  C132  1  0.25397620  0.68980796  0.53414712  1
  C  C133  1  0.24780249  0.69642727  0.46500986  1
  C  C134  1  0.15360573  0.73808026  0.43524229  1
  C  C135  1  0.14672646  0.74100926  0.37005998  1
  C  C136  1  0.23257164  0.70114508  0.33256177  1
  C  C137  1  0.22500199  0.70750192  0.26218125  1
  C  C138  1  0.26993281  0.81735366  0.23770248  1
  C  C139  1  0.25383602  0.83409984  0.16796621  1
  C  C140  1  0.32684959  0.66040336  0.36213619  1
  C  C141  1  0.33475107  0.65863255  0.42739924  1
  C  C142  1  0.16608189  0.64642219  0.56875677  1
  C  C143  1  0.17236237  0.63692261  0.63371544  1
  C  C144  1  0.78426906  0.25372184  0.15962030  1
  C  C145  1  0.77666015  0.26351552  0.23054143  1
  C  C146  1  0.72803063  0.16158660  0.26290657  1
  C  C147  1  0.73296419  0.17063861  0.33331322  1
  C  C148  1  0.64554316  0.21528828  0.36786087  1
  C  C149  1  0.65132880  0.22486961  0.43294794  1
  C  C150  1  0.74564473  0.19090782  0.46557439  1
  C  C151  1  0.75219292  0.19767073  0.53470908  1
  C  C152  1  0.84610690  0.23922860  0.56452614  1
  C  C153  1  0.85376087  0.24136154  0.62971897  1
  C  C154  1  0.76850416  0.20093482  0.66718858  1
  C  C155  1  0.77604151  0.20476296  0.73759556  1
  C  C156  1  0.72809674  0.31264197  0.76372473  1
  C  C157  1  0.74234168  0.32548940  0.83391317  1
  C  C158  1  0.67416904  0.16109074  0.63752870  1
  C  C159  1  0.66570081  0.15984486  0.57237151  1
  C  C160  1  0.83376768  0.14741863  0.43083678  1
  C  C161  1  0.82721132  0.13716251  0.36589198  1
  C  C162  1  0.74690288  0.78442671  0.15982638  1
  C  C163  1  0.73649082  0.77751873  0.23066029  1
  C  C164  1  0.83821632  0.72872603  0.26322949  1
  C  C165  1  0.82887883  0.73375175  0.33356425  1
  C  C166  1  0.78423682  0.64639858  0.36787821  1
  C  C167  1  0.77485353  0.65214978  0.43298752  1
  C  C168  1  0.80917076  0.74616612  0.46583946  1
  C  C169  1  0.80239617  0.75259128  0.53497908  1
  C  C170  1  0.76096799  0.84721520  0.56485002  1
  C  C171  1  0.75836348  0.85462490  0.63003671  1
  C  C172  1  0.79835847  0.76861646  0.66748865  1
  C  C173  1  0.79450372  0.77657259  0.73792526  1
  C  C174  1  0.68709604  0.72989217  0.76439919  1
  C  C175  1  0.67439081  0.74591140  0.83452797  1
  C  C176  1  0.83877705  0.67382451  0.63777638  1
  C  C177  1  0.84025427  0.66547798  0.57258512  1
  C  C178  1  0.85241940  0.83434958  0.43130844  1
  C  C179  1  0.86220151  0.82791248  0.36633691  1
  I  I180  1  0.24543729  0.91244339  0.99904618  1
  I  I181  1  0.24621597  0.56728839  0.01082405  1
  I  I182  1  0.74206962  0.07220253  0.99881543  1
  I  I183  1  0.74499212  0.43080080  0.99770356  1
  I  I184  1  0.08849317  0.25048935  0.99945621  1
  I  I185  1  0.92784767  0.74965541  0.99740920  1
  I  I186  1  0.43970251  0.25574306  0.99624528  1
  I  I187  1  0.57825088  0.75336836  0.00284742  1
  I  I188  1  0.98305104  0.00452855  0.85292495  1
  I  I189  1  0.99027531  0.99915290  0.15661632  1
  I  I190  1  0.00314332  0.50169708  0.84259697  1
  I  I191  1  0.99863513  0.51442289  0.14948888  1
  I  I192  1  0.49213021  1.00068058  0.84285207  1
  I  I193  1  0.49910612  0.01369190  0.14936362  1
  I  I194  1  0.48113145  0.50134865  0.85110893  1
  I  I195  1  0.50445700  0.49915649  0.15862450  1
  N  N196  1  0.24109920  0.32850729  0.86893152  1
  N  N197  1  0.24427859  0.32280881  0.12894070  1
  N  N198  1  0.32615218  0.75694470  0.86931493  1
  N  N199  1  0.32445556  0.75812871  0.12948056  1
  N  N200  1  0.67343666  0.24760646  0.12912827  1
  N  N201  1  0.67738265  0.24277308  0.87048236  1
  N  N202  1  0.75439301  0.67275392  0.12972243  1
  N  N203  1  0.75768495  0.68156102  0.87136939  1
