# generated using pymatgen
data_H19PbC12SI4N3
_symmetry_space_group_name_H-M   'P 1'
_cell_length_a   12.40650544
_cell_length_b   12.43350914
_cell_length_c   17.92166253
_cell_angle_alpha   91.08666023
_cell_angle_beta   91.10188082
_cell_angle_gamma   89.70106581
_symmetry_Int_Tables_number   1
_chemical_formula_structural   H19PbC12SI4N3
_chemical_formula_sum   'H76 Pb4 C48 S4 I16 N12'
_cell_volume   2763.49025121
_cell_formula_units_Z   4
loop_
 _symmetry_equiv_pos_site_id
 _symmetry_equiv_pos_as_xyz
  1  'x, y, z'
loop_
 _atom_site_type_symbol
 _atom_site_label
 _atom_site_symmetry_multiplicity
 _atom_site_fract_x
 _atom_site_fract_y
 _atom_site_fract_z
 _atom_site_occupancy
  H  H0  1  0.30787052  0.20235557  0.88628468  1
  H  H1  1  0.20005984  0.28024831  0.90083736  1
  H  H2  1  0.31516034  0.33245577  0.86841378  1
  H  H3  1  0.18366370  0.31766697  0.76843047  1
  H  H4  1  0.16915965  0.17815120  0.78704451  1
  H  H5  1  0.38131337  0.28601093  0.74367770  1
  H  H6  1  0.36508233  0.14680478  0.75890181  1
  H  H7  1  0.26121251  0.02494962  0.64406267  1
  H  H8  1  0.21395690  0.07024101  0.51105604  1
  H  H9  1  0.23203214  0.14168652  0.38547933  1
  H  H10  1  0.11464313  0.30817338  0.22656894  1
  H  H11  1  0.16029856  0.17745132  0.24955784  1
  H  H12  1  0.35371851  0.23804572  0.23533495  1
  H  H13  1  0.30659888  0.36870600  0.21170550  1
  H  H14  1  0.21008780  0.28634847  0.10447524  1
  H  H15  1  0.25626017  0.16590978  0.12752662  1
  H  H16  1  0.34242079  0.25996112  0.10157522  1
  H  H17  1  0.16133515  0.47335554  0.32608854  1
  H  H18  1  0.29808091  0.36904354  0.61106229  1
  H  H19  1  0.19464316  0.69312512  0.88571161  1
  H  H20  1  0.28087129  0.79295115  0.90311550  1
  H  H21  1  0.32497790  0.67318363  0.86737866  1
  H  H22  1  0.31871917  0.81093079  0.77278577  1
  H  H23  1  0.17859669  0.82890351  0.79026538  1
  H  H24  1  0.28384621  0.61552456  0.73910724  1
  H  H25  1  0.14492379  0.63465143  0.75496103  1
  H  H26  1  0.02434826  0.74088388  0.64336830  1
  H  H27  1  0.07038599  0.78757649  0.51164459  1
  H  H28  1  0.14197360  0.77166894  0.38665961  1
  H  H29  1  0.30773670  0.88715284  0.23125289  1
  H  H30  1  0.17728106  0.84208751  0.25335448  1
  H  H31  1  0.23723234  0.64959523  0.23198881  1
  H  H32  1  0.36842963  0.69484143  0.21008121  1
  H  H33  1  0.28486958  0.79575045  0.10646925  1
  H  H34  1  0.16481877  0.74969087  0.12785939  1
  H  H35  1  0.25859326  0.66299199  0.09903662  1
  H  H36  1  0.47529475  0.83435758  0.32877094  1
  H  H37  1  0.36925871  0.70037592  0.61028884  1
  H  H38  1  0.79930576  0.19008388  0.11325597  1
  H  H39  1  0.71878469  0.29590898  0.09858306  1
  H  H40  1  0.66889550  0.18041268  0.13174973  1
  H  H41  1  0.68226238  0.31301641  0.23091022  1
  H  H42  1  0.82170457  0.32895288  0.21214261  1
  H  H43  1  0.71611387  0.11627588  0.25665399  1
  H  H44  1  0.85542688  0.13394188  0.24112326  1
  H  H45  1  0.97516661  0.24616812  0.35546933  1
  H  H46  1  0.92810039  0.29484269  0.48745082  1
  H  H47  1  0.85880293  0.27014478  0.61408923  1
  H  H48  1  0.69092184  0.38320909  0.77308753  1
  H  H49  1  0.82191870  0.33810339  0.74993629  1
  H  H50  1  0.76096265  0.14489214  0.76346497  1
  H  H51  1  0.63031167  0.19213440  0.78799863  1
  H  H52  1  0.71654796  0.28859008  0.89491776  1
  H  H53  1  0.83524296  0.23860783  0.87095491  1
  H  H54  1  0.73915361  0.15531461  0.89755016  1
  H  H55  1  0.52476716  0.33076872  0.67352812  1
  H  H56  1  0.63246149  0.19476185  0.38913611  1
  H  H57  1  0.81428171  0.80291238  0.11639510  1
  H  H58  1  0.71045960  0.72155961  0.09716650  1
  H  H59  1  0.82763345  0.67215860  0.13481965  1
  H  H60  1  0.69060494  0.68266633  0.22823167  1
  H  H61  1  0.67300559  0.82223880  0.20934254  1
  H  H62  1  0.88639140  0.71809531  0.26181028  1
  H  H63  1  0.86667267  0.85666445  0.24545103  1
  H  H64  1  0.75714430  0.97675718  0.35689977  1
  H  H65  1  0.70640855  0.92958503  0.48741169  1
  H  H66  1  0.73113185  0.85918769  0.61408281  1
  H  H67  1  0.61368556  0.69293142  0.76907333  1
  H  H68  1  0.65895732  0.82323248  0.74758941  1
  H  H69  1  0.85181347  0.76352894  0.76868797  1
  H  H70  1  0.80673130  0.63189944  0.78958427  1
  H  H71  1  0.70642740  0.71356420  0.89418825  1
  H  H72  1  0.75351206  0.83367932  0.87401569  1
  H  H73  1  0.83952971  0.73849773  0.90126404  1
  H  H74  1  0.66342485  0.52700654  0.67049229  1
  H  H75  1  0.80339160  0.63327077  0.39068445  1
  Pb  Pb76  1  1.00520341  0.00494897  0.98980700  1
  Pb  Pb77  1  0.99028197  0.49867584  0.00035775  1
  Pb  Pb78  1  0.49934852  -0.00094444  0.00057729  1
  Pb  Pb79  1  0.49790311  0.50488835  0.00869690  1
  C  C80  1  0.22672947  0.24494362  0.78618682  1
  C  C81  1  0.32373074  0.21904011  0.73774768  1
  C  C82  1  0.29146995  0.20281570  0.65749233  1
  C  C83  1  0.26409698  0.10583650  0.62251911  1
  C  C84  1  0.24758817  0.23496195  0.53573630  1
  C  C85  1  0.22505891  0.27930011  0.46316241  1
  C  C86  1  0.21779314  0.22764298  0.39396893  1
  C  C87  1  0.19221562  0.29824747  0.33435513  1
  C  C88  1  0.18111954  0.26341172  0.25366212  1
  C  C89  1  0.28514800  0.28323525  0.21197186  1
  C  C90  1  0.18118517  0.40336483  0.35917405  1
  C  C91  1  0.28090705  0.28394720  0.60288744  1
  C  C92  1  0.24450427  0.76959064  0.78798701  1
  C  C93  1  0.21782446  0.67488849  0.73551212  1
  C  C94  1  0.20244741  0.70925136  0.65651052  1
  C  C95  1  0.10555172  0.73777539  0.62203038  1
  C  C96  1  0.23557886  0.75320858  0.53618038  1
  C  C97  1  0.28035402  0.77493208  0.46430376  1
  C  C98  1  0.22832713  0.78392312  0.39547224  1
  C  C99  1  0.29911363  0.80838915  0.33652754  1
  C  C100  1  0.26347172  0.82078339  0.25648639  1
  C  C101  1  0.28288633  0.71777976  0.21106214  1
  C  C102  1  0.40475514  0.81651891  0.36130117  1
  C  C103  1  0.28417226  0.71921472  0.60250558  1
  C  C104  1  0.75556198  0.27065360  0.21329266  1
  C  C105  1  0.78260481  0.17451958  0.26219247  1
  C  C106  1  0.79833597  0.20764176  0.34235695  1
  C  C107  1  0.89443580  0.23939798  0.37700518  1
  C  C108  1  0.76514559  0.25059370  0.46414402  1
  C  C109  1  0.72020231  0.27173510  0.53671711  1
  C  C110  1  0.77219557  0.28113558  0.60571560  1
  C  C111  1  0.70102570  0.30508145  0.66527104  1
  C  C112  1  0.73587786  0.31704057  0.74587504  1
  C  C113  1  0.71604088  0.21312907  0.78740166  1
  C  C114  1  0.59530441  0.31261449  0.64055950  1
  C  C115  1  0.71707181  0.21484044  0.39723671  1
  C  C116  1  0.73227013  0.75641283  0.21260613  1
  C  C117  1  0.82677934  0.78387569  0.26523111  1
  C  C118  1  0.79215540  0.79938850  0.34412489  1
  C  C119  1  0.76122251  0.89567606  0.37809376  1
  C  C120  1  0.74823711  0.76618487  0.46444006  1
  C  C121  1  0.72657580  0.72142267  0.53632525  1
  C  C122  1  0.71840531  0.77314213  0.60522196  1
  C  C123  1  0.69263334  0.70253946  0.66389615  1
  C  C124  1  0.68030939  0.73727407  0.74412883  1
  C  C125  1  0.78370403  0.71727455  0.78927683  1
  C  C126  1  0.68273585  0.59754353  0.63865814  1
  C  C127  1  0.78377952  0.71799801  0.39842829  1
  S  S128  1  0.20009638  0.41597730  0.45396743  1
  S  S129  1  0.41755309  0.79631141  0.45544065  1
  S  S130  1  0.58267146  0.29262409  0.54594519  1
  S  S131  1  0.70236090  0.58505759  0.54451586  1
  I  I132  1  0.25669536  0.94672421  0.00109267  1
  I  I133  1  0.24662713  0.50644061  0.01550910  1
  I  I134  1  0.75546568  0.00980369  1.00015521  1
  I  I135  1  0.74426710  0.44641039  0.99159237  1
  I  I136  1  0.05011493  0.25060789  0.00213573  1
  I  I137  1  -0.00075069  0.74837603  0.98728254  1
  I  I138  1  0.48293225  0.24861485  0.99387405  1
  I  I139  1  0.55552251  0.74734714  0.00489645  1
  I  I140  1  0.97726851  1.00116868  0.81248309  1
  I  I141  1  0.01946023  0.99851489  0.16782544  1
  I  I142  1  0.00063678  0.47795416  0.82569457  1
  I  I143  1  0.98637787  0.53130037  0.18009248  1
  I  I144  1  0.49960468  0.97954336  0.82556013  1
  I  I145  1  0.50968519  0.03273887  0.18059395  1
  I  I146  1  0.46015870  0.50131546  0.82599157  1
  I  I147  1  0.52152674  0.49708128  0.18120530  1
  N  N148  1  0.26419599  0.26630012  0.86535558  1
  N  N149  1  0.23795910  0.12638784  0.54941579  1
  N  N150  1  0.27294047  0.24698489  0.13178989  1
  N  N151  1  0.26281035  0.72971968  0.86612524  1
  N  N152  1  0.12659606  0.76410804  0.54972020  1
  N  N153  1  0.24623238  0.73261186  0.13165434  1
  N  N154  1  0.73441509  0.23243058  0.13411356  1
  N  N155  1  0.87331999  0.26466384  0.45015129  1
  N  N156  1  0.75346159  0.22436365  0.86733063  1
  N  N157  1  0.77363351  0.73671756  0.13505915  1
  N  N158  1  0.73520308  0.87455004  0.45045357  1
  N  N159  1  0.76967508  0.75227713  0.86921828  1
