# generated using pymatgen
data_H21PbC10I4N3
_symmetry_space_group_name_H-M   'P 1'
_cell_length_a   12.40786984
_cell_length_b   12.32610898
_cell_length_c   16.13759342
_cell_angle_alpha   86.24437808
_cell_angle_beta   88.32162972
_cell_angle_gamma   89.79274606
_symmetry_Int_Tables_number   1
_chemical_formula_structural   H21PbC10I4N3
_chemical_formula_sum   'H84 Pb4 C40 I16 N12'
_cell_volume   2461.73536325
_cell_formula_units_Z   4
loop_
 _symmetry_equiv_pos_site_id
 _symmetry_equiv_pos_as_xyz
  1  'x, y, z'
loop_
 _atom_site_type_symbol
 _atom_site_label
 _atom_site_symmetry_multiplicity
 _atom_site_fract_x
 _atom_site_fract_y
 _atom_site_fract_z
 _atom_site_occupancy
  H  H0  1  0.27349716  0.22274119  0.85292593  1
  H  H1  1  0.22803873  0.33470181  0.89537507  1
  H  H2  1  0.15651886  0.27859177  0.82499489  1
  H  H3  1  0.24571283  0.44240752  0.76802115  1
  H  H4  1  0.37076090  0.38728967  0.80223396  1
  H  H5  1  0.35074563  0.23439945  0.70489109  1
  H  H6  1  0.36733166  0.36482713  0.65520373  1
  H  H7  1  0.17008322  0.38100280  0.63267495  1
  H  H8  1  0.14632694  0.25333750  0.68636133  1
  H  H9  1  0.20863291  0.06533044  0.60828769  1
  H  H10  1  0.25753346  0.03608399  0.45897063  1
  H  H11  1  0.33716739  0.13929896  0.32524784  1
  H  H12  1  0.34058272  0.28280412  0.32406229  1
  H  H13  1  0.13912078  0.28992270  0.30841205  1
  H  H14  1  0.13266375  0.14670123  0.31517730  1
  H  H15  1  0.24973295  0.14311512  0.18319979  1
  H  H16  1  0.12173137  0.20580083  0.17065675  1
  H  H17  1  0.26808064  0.30848268  0.09996490  1
  H  H18  1  0.32396349  0.33337790  0.18862509  1
  H  H19  1  0.19932826  0.38078595  0.16962397  1
  H  H20  1  0.26037355  0.37738127  0.46954376  1
  H  H21  1  0.22468125  0.72984562  0.84930119  1
  H  H22  1  0.33410937  0.77617513  0.89317295  1
  H  H23  1  0.28041648  0.84827041  0.81424398  1
  H  H24  1  0.44347962  0.75504326  0.77095088  1
  H  H25  1  0.38687366  0.63102684  0.81402398  1
  H  H26  1  0.23736056  0.64963306  0.70981632  1
  H  H27  1  0.36713080  0.63430811  0.66450061  1
  H  H28  1  0.38007673  0.83355515  0.62902529  1
  H  H29  1  0.25397419  0.85587007  0.67872338  1
  H  H30  1  0.06737007  0.78803452  0.60222560  1
  H  H31  1  0.03770924  0.73904415  0.45536776  1
  H  H32  1  0.13997670  0.66231452  0.32919430  1
  H  H33  1  0.28162481  0.65705520  0.33252762  1
  H  H34  1  0.29112384  0.86009688  0.30234324  1
  H  H35  1  0.14874421  0.86834962  0.30541708  1
  H  H36  1  0.14000507  0.75402342  0.18232835  1
  H  H37  1  0.20799699  0.88015094  0.16179899  1
  H  H38  1  0.30665282  0.73885953  0.10073336  1
  H  H39  1  0.31808774  0.66506179  0.18996822  1
  H  H40  1  0.37887860  0.78725273  0.17578312  1
  H  H41  1  0.37625517  0.74351499  0.47277601  1
  H  H42  1  0.76624511  0.20815596  0.15026343  1
  H  H43  1  0.65756889  0.25776515  0.10427758  1
  H  H44  1  0.71672996  0.33023625  0.17252707  1
  H  H45  1  0.55260159  0.24705866  0.23137005  1
  H  H46  1  0.60309670  0.11803366  0.20340604  1
  H  H47  1  0.76049969  0.14032009  0.29864042  1
  H  H48  1  0.63356594  0.12501065  0.34959892  1
  H  H49  1  0.61980849  0.32549191  0.36318399  1
  H  H50  1  0.74491020  0.34683854  0.31023386  1
  H  H51  1  0.93288263  0.28336026  0.39411097  1
  H  H52  1  0.96328106  0.23303726  0.54560816  1
  H  H53  1  0.86054036  0.15318831  0.67952769  1
  H  H54  1  0.71850001  0.15220390  0.67687079  1
  H  H55  1  0.71493255  0.35574432  0.68772325  1
  H  H56  1  0.85671150  0.35958415  0.68419428  1
  H  H57  1  0.85842414  0.23538648  0.81731301  1
  H  H58  1  0.80047009  0.36644031  0.82816472  1
  H  H59  1  0.69896983  0.20983867  0.89574089  1
  H  H60  1  0.66300426  0.17226702  0.80421381  1
  H  H61  1  0.62825175  0.29714520  0.83186592  1
  H  H62  1  0.62466289  0.23327346  0.52754034  1
  H  H63  1  0.78058679  0.77446695  0.14582540  1
  H  H64  1  0.71930019  0.66804187  0.11054208  1
  H  H65  1  0.66057612  0.73578732  0.18712062  1
  H  H66  1  0.74396849  0.55814850  0.23361165  1
  H  H67  1  0.86857676  0.61120695  0.19152435  1
  H  H68  1  0.85535607  0.76247003  0.29119550  1
  H  H69  1  0.86978803  0.63073965  0.33948528  1
  H  H70  1  0.67315102  0.62011932  0.37329500  1
  H  H71  1  0.65076703  0.74760077  0.32015884  1
  H  H72  1  0.71726861  0.93501144  0.39383114  1
  H  H73  1  0.76623462  0.96375337  0.54134954  1
  H  H74  1  0.84396281  0.85953251  0.67196633  1
  H  H75  1  0.85000718  0.71652499  0.67126607  1
  H  H76  1  0.64886004  0.70557735  0.69606875  1
  H  H77  1  0.63972559  0.84879701  0.69008212  1
  H  H78  1  0.75833452  0.85499136  0.81486741  1
  H  H79  1  0.63250815  0.78881845  0.83537668  1
  H  H80  1  0.78378190  0.69214822  0.89796237  1
  H  H81  1  0.83915245  0.66799212  0.80681460  1
  H  H82  1  0.71656320  0.61651774  0.83250021  1
  H  H83  1  0.76636702  0.62258846  0.53009481  1
  Pb  Pb84  1  0.00203739  1.00006852  0.99558059  1
  Pb  Pb85  1  0.01584178  0.51089019  0.99604083  1
  Pb  Pb86  1  0.51223696  0.99200359  0.99819382  1
  Pb  Pb87  1  0.51377029  0.48746890  0.00841728  1
  C  C88  1  0.29376559  0.36744135  0.77519491  1
  C  C89  1  0.31030003  0.31366405  0.69383115  1
  C  C90  1  0.20580197  0.30001624  0.64637717  1
  C  C91  1  0.22434500  0.24296068  0.56785124  1
  C  C92  1  0.22422651  0.13119633  0.56155217  1
  C  C93  1  0.26963975  0.20774502  0.43413157  1
  C  C94  1  0.29009246  0.21117428  0.34222394  1
  C  C95  1  0.18439784  0.21601531  0.29411150  1
  C  C96  1  0.19959204  0.21217874  0.20054019  1
  C  C97  1  0.25327533  0.29091692  0.48718432  1
  C  C98  1  0.36845995  0.70817774  0.77969842  1
  C  C99  1  0.31567733  0.69084875  0.69812169  1
  C  C100  1  0.30043937  0.79660889  0.64365369  1
  C  C101  1  0.24314865  0.77751094  0.56563546  1
  C  C102  1  0.13228702  0.77465494  0.55752142  1
  C  C103  1  0.20785745  0.73024772  0.43500002  1
  C  C104  1  0.21124706  0.70905043  0.34499925  1
  C  C105  1  0.21711571  0.81562147  0.28960548  1
  C  C106  1  0.21095180  0.80118055  0.19712123  1
  C  C107  1  0.29058193  0.74922956  0.48823223  1
  C  C108  1  0.62523902  0.19627949  0.22677580  1
  C  C109  1  0.68243754  0.18144883  0.30848148  1
  C  C110  1  0.69899927  0.28764405  0.35163075  1
  C  C111  1  0.75722440  0.26840408  0.43125818  1
  C  C112  1  0.86802887  0.26807409  0.43990650  1
  C  C113  1  0.79323661  0.22228369  0.56683326  1
  C  C114  1  0.79026952  0.20193340  0.65906674  1
  C  C115  1  0.78735341  0.30814973  0.70455989  1
  C  C116  1  0.79169834  0.28944923  0.79844996  1
  C  C117  1  0.71030291  0.23901500  0.51143621  1
  C  C118  1  0.79299942  0.63216278  0.22372231  1
  C  C119  1  0.81348760  0.68410413  0.30432100  1
  C  C120  1  0.71018103  0.70019300  0.35707044  1
  C  C121  1  0.73119289  0.75754096  0.43382515  1
  C  C122  1  0.73180943  0.86915746  0.44006804  1
  C  C123  1  0.77809175  0.79207989  0.56503022  1
  C  C124  1  0.79838810  0.78755332  0.65577814  1
  C  C125  1  0.69281423  0.78016274  0.70842338  1
  C  C126  1  0.70969050  0.78455916  0.80088867  1
  C  C127  1  0.76090465  0.70916175  0.51272183  1
  I  I128  1  0.25605944  0.97221131  0.98909626  1
  I  I129  1  0.26620825  0.52741412  0.97162297  1
  I  I130  1  0.75158638  0.06732355  0.00514507  1
  I  I131  1  0.76219058  0.47297189  0.02993657  1
  I  I132  1  0.03081209  0.25896102  0.99191950  1
  I  I133  1  0.92817361  0.75610571  0.00262507  1
  I  I134  1  0.45409018  0.23996964  0.01543560  1
  I  I135  1  0.51666558  0.73988437  0.98704770  1
  I  I136  1  0.01369416  0.00789350  0.79452081  1
  I  I137  1  0.96209599  0.99225802  0.19628317  1
  I  I138  1  0.01197125  0.54149154  0.79504568  1
  I  I139  1  0.06205783  0.50755442  0.19467292  1
  I  I140  1  0.50481394  0.02565746  0.79893060  1
  I  I141  1  0.52207350  0.91265692  0.20205588  1
  I  I142  1  0.56767097  0.48900871  0.80813421  1
  I  I143  1  0.47799841  0.49297986  0.20712777  1
  N  N144  1  0.23447366  0.29572679  0.84031043  1
  N  N145  1  0.25156826  0.11139433  0.48071674  1
  N  N146  1  0.25175829  0.31397958  0.16258719  1
  N  N147  1  0.29673966  0.77003438  0.83695274  1
  N  N148  1  0.11231189  0.74619170  0.47836009  1
  N  N149  1  0.30862564  0.74341008  0.16418339  1
  N  N150  1  0.69635199  0.25195353  0.16031293  1
  N  N151  1  0.88855591  0.24038438  0.52196160  1
  N  N152  1  0.68945089  0.23883009  0.83427938  1
  N  N153  1  0.73354195  0.70749735  0.16382129  1
  N  N154  1  0.75989890  0.88871825  0.51961257  1
  N  N155  1  0.76572210  0.68467571  0.83624403  1
