# generated using pymatgen
data_H26PbC14(I2N)2
_symmetry_space_group_name_H-M   'P 1'
_cell_length_a   12.28849144
_cell_length_b   12.28863757
_cell_length_c   20.35030911
_cell_angle_alpha   89.99466930
_cell_angle_beta   89.99574893
_cell_angle_gamma   90.00644510
_symmetry_Int_Tables_number   1
_chemical_formula_structural   H26PbC14(I2N)2
_chemical_formula_sum   'H104 Pb4 C56 I16 N8'
_cell_volume   3073.07607565
_cell_formula_units_Z   4
loop_
 _symmetry_equiv_pos_site_id
 _symmetry_equiv_pos_as_xyz
  1  'x, y, z'
loop_
 _atom_site_type_symbol
 _atom_site_label
 _atom_site_symmetry_multiplicity
 _atom_site_fract_x
 _atom_site_fract_y
 _atom_site_fract_z
 _atom_site_occupancy
  H  H0  1  0.30456302  0.28044251  0.88628007  1
  H  H1  1  0.19909181  0.20588454  0.91065963  1
  H  H2  1  0.31021089  0.14689619  0.87734911  1
  H  H3  1  0.15149374  0.29140375  0.80896067  1
  H  H4  1  0.16115737  0.14769472  0.79976682  1
  H  H5  1  0.34125761  0.31309543  0.76491288  1
  H  H6  1  0.35581693  0.17002671  0.76014857  1
  H  H7  1  0.20466737  0.16101316  0.67684991  1
  H  H8  1  0.18914489  0.30365962  0.68087903  1
  H  H9  1  0.39807696  0.18469786  0.63967511  1
  H  H10  1  0.38239267  0.32760776  0.64332626  1
  H  H11  1  0.28956072  0.07580766  0.55588127  1
  H  H12  1  0.21189309  0.07580359  0.44405011  1
  H  H13  1  0.10218040  0.18482700  0.36044886  1
  H  H14  1  0.11839021  0.32768140  0.35675183  1
  H  H15  1  0.29527092  0.15991970  0.32349882  1
  H  H16  1  0.31219843  0.30240875  0.31980928  1
  H  H17  1  0.14574191  0.17049671  0.23944557  1
  H  H18  1  0.16103074  0.31364369  0.23531590  1
  H  H19  1  0.35189313  0.29152485  0.19270028  1
  H  H20  1  0.34096300  0.14773639  0.20079119  1
  H  H21  1  0.20068807  0.28316132  0.11421239  1
  H  H22  1  0.19484530  0.14919839  0.12158701  1
  H  H23  1  0.30691587  0.20946993  0.08992903  1
  H  H24  1  0.21124298  0.42625371  0.44411986  1
  H  H25  1  0.28851496  0.42622937  0.55623163  1
  H  H26  1  0.28039120  0.69558298  0.88623083  1
  H  H27  1  0.20584627  0.80105664  0.91057538  1
  H  H28  1  0.14684961  0.68991076  0.87727867  1
  H  H29  1  0.29143095  0.84857213  0.80887101  1
  H  H30  1  0.14770703  0.83894045  0.79966279  1
  H  H31  1  0.31307318  0.65880794  0.76489118  1
  H  H32  1  0.16999365  0.64423657  0.76013196  1
  H  H33  1  0.16100132  0.79532206  0.67678980  1
  H  H34  1  0.30364994  0.81087609  0.68081961  1
  H  H35  1  0.18469471  0.60190868  0.63965763  1
  H  H36  1  0.32760862  0.61763198  0.64331227  1
  H  H37  1  0.07579920  0.71040998  0.55586485  1
  H  H38  1  0.07579874  0.78809272  0.44403340  1
  H  H39  1  0.18484646  0.89784316  0.36042377  1
  H  H40  1  0.32769772  0.88161180  0.35671862  1
  H  H41  1  0.15986687  0.70475987  0.32348480  1
  H  H42  1  0.30235101  0.68781189  0.31979130  1
  H  H43  1  0.17047936  0.85428568  0.23941891  1
  H  H44  1  0.31362727  0.83903100  0.23531095  1
  H  H45  1  0.29151293  0.64814716  0.19270148  1
  H  H46  1  0.14772253  0.65911174  0.20070638  1
  H  H47  1  0.28339821  0.79934134  0.11420941  1
  H  H48  1  0.14942678  0.80529936  0.12150895  1
  H  H49  1  0.20961788  0.69318787  0.08988034  1
  H  H50  1  0.42625608  0.78881686  0.44409300  1
  H  H51  1  0.42622446  0.71152491  0.55621221  1
  H  H52  1  0.71707940  0.20141083  0.11391227  1
  H  H53  1  0.78964689  0.30861090  0.08988977  1
  H  H54  1  0.85108003  0.19697030  0.12114052  1
  H  H55  1  0.70737541  0.35193884  0.19286591  1
  H  H56  1  0.85127985  0.34234166  0.20080973  1
  H  H57  1  0.68717768  0.16054298  0.23498105  1
  H  H58  1  0.83048465  0.14662584  0.23896875  1
  H  H59  1  0.83977562  0.29565133  0.32339988  1
  H  H60  1  0.69714704  0.31132609  0.31979171  1
  H  H61  1  0.81659916  0.10217124  0.36002110  1
  H  H62  1  0.67359294  0.11708384  0.35631575  1
  H  H63  1  0.92455877  0.21129226  0.44412284  1
  H  H64  1  0.92378108  0.28897093  0.55594671  1
  H  H65  1  0.81388130  0.39809319  0.63923217  1
  H  H66  1  0.67111840  0.38114079  0.64290121  1
  H  H67  1  0.83928573  0.20510416  0.67674608  1
  H  H68  1  0.69677738  0.18832227  0.68084842  1
  H  H69  1  0.82897026  0.35671970  0.75966940  1
  H  H70  1  0.68605074  0.34085561  0.76455360  1
  H  H71  1  0.70961296  0.15160432  0.80907486  1
  H  H72  1  0.85320241  0.16264372  0.79979351  1
  H  H73  1  0.71907877  0.30527769  0.88597813  1
  H  H74  1  0.85258800  0.31243789  0.87687917  1
  H  H75  1  0.79485065  0.20087041  0.91059311  1
  H  H76  1  0.57335415  0.28733267  0.55558862  1
  H  H77  1  0.57411539  0.21004531  0.44348272  1
  H  H78  1  0.79868341  0.71708662  0.11390194  1
  H  H79  1  0.69154078  0.78970031  0.08986182  1
  H  H80  1  0.80320710  0.85108383  0.12112670  1
  H  H81  1  0.64811086  0.70744170  0.19283316  1
  H  H82  1  0.65775900  0.85133485  0.20078301  1
  H  H83  1  0.83949084  0.68720493  0.23496209  1
  H  H84  1  0.85345975  0.83050109  0.23896415  1
  H  H85  1  0.70439728  0.83979277  0.32339241  1
  H  H86  1  0.68869071  0.69716774  0.31977385  1
  H  H87  1  0.89787681  0.81660534  0.35999591  1
  H  H88  1  0.88292161  0.67360053  0.35629802  1
  H  H89  1  0.78869696  0.92456724  0.44409280  1
  H  H90  1  0.71099933  0.92382549  0.55591897  1
  H  H91  1  0.60191627  0.81390773  0.63922220  1
  H  H92  1  0.61884788  0.67114504  0.64289359  1
  H  H93  1  0.79491357  0.83932078  0.67671336  1
  H  H94  1  0.81168469  0.69681356  0.68079630  1
  H  H95  1  0.64334538  0.82897607  0.75967490  1
  H  H96  1  0.65917552  0.68605149  0.76453209  1
  H  H97  1  0.84843097  0.70955802  0.80900316  1
  H  H98  1  0.83747804  0.85315938  0.79972088  1
  H  H99  1  0.69482659  0.71908651  0.88594593  1
  H  H100  1  0.68771747  0.85259331  0.87684427  1
  H  H101  1  0.79927831  0.79482732  0.91053371  1
  H  H102  1  0.71270738  0.57340285  0.55559121  1
  H  H103  1  0.79001481  0.57412491  0.44347517  1
  Pb  Pb104  1  0.99960341  0.99991512  0.99824455  1
  Pb  Pb105  1  0.99983926  0.49994251  0.99964549  1
  Pb  Pb106  1  0.49992954  0.99985480  0.99962643  1
  Pb  Pb107  1  0.49948618  0.49986233  0.00352490  1
  C  C108  1  0.20852982  0.22249852  0.80714422  1
  C  C109  1  0.29639627  0.23690551  0.75550594  1
  C  C110  1  0.24913578  0.23748987  0.68601697  1
  C  C111  1  0.33849549  0.25104349  0.63375024  1
  C  C112  1  0.29473472  0.25114883  0.56449812  1
  C  C113  1  0.27237660  0.15323755  0.53165538  1
  C  C114  1  0.22848676  0.15329131  0.46841223  1
  C  C115  1  0.20554207  0.25113005  0.43571666  1
  C  C116  1  0.16202025  0.25102286  0.36639914  1
  C  C117  1  0.25162808  0.23687775  0.31436929  1
  C  C118  1  0.20538109  0.23711010  0.24461995  1
  C  C119  1  0.29429029  0.22302535  0.19358855  1
  C  C120  1  0.22803622  0.34889344  0.46848764  1
  C  C121  1  0.27176494  0.34883276  0.53183591  1
  C  C122  1  0.22249349  0.79156425  0.80706646  1
  C  C123  1  0.23688652  0.70365658  0.75546725  1
  C  C124  1  0.23747848  0.75087663  0.68596760  1
  C  C125  1  0.25104351  0.66150251  0.63372545  1
  C  C126  1  0.25112763  0.70526106  0.56447038  1
  C  C127  1  0.15324782  0.72760564  0.53163800  1
  C  C128  1  0.15327165  0.77150749  0.46839034  1
  C  C129  1  0.25114593  0.79446807  0.43569487  1
  C  C130  1  0.25101893  0.83799286  0.36637204  1
  C  C131  1  0.23683954  0.74839040  0.31434910  1
  C  C132  1  0.23709265  0.79465470  0.24459764  1
  C  C133  1  0.22304378  0.70577508  0.19355495  1
  C  C134  1  0.34887526  0.77199869  0.46846033  1
  C  C135  1  0.34884804  0.72825765  0.53181224  1
  C  C136  1  0.77641863  0.29499813  0.19354084  1
  C  C137  1  0.76329973  0.20557492  0.24433927  1
  C  C138  1  0.76319811  0.25137274  0.31419714  1
  C  C139  1  0.74985611  0.16135950  0.36605109  1
  C  C140  1  0.74931358  0.20465473  0.43542884  1
  C  C141  1  0.84688964  0.22774239  0.46832939  1
  C  C142  1  0.84653568  0.27165028  0.53157452  1
  C  C143  1  0.74837103  0.29388530  0.56420407  1
  C  C144  1  0.74806475  0.33788482  0.63340501  1
  C  C145  1  0.76241802  0.24893004  0.68583656  1
  C  C146  1  0.76263556  0.29664648  0.75521344  1
  C  C147  1  0.77794796  0.20931985  0.80708271  1
  C  C148  1  0.65093856  0.27070458  0.53135411  1
  C  C149  1  0.65128800  0.22695354  0.46800608  1
  C  C150  1  0.70508751  0.77646838  0.19351772  1
  C  C151  1  0.79447941  0.76333449  0.24432487  1
  C  C152  1  0.74866262  0.76321741  0.31418123  1
  C  C153  1  0.83866655  0.74988009  0.36603112  1
  C  C154  1  0.79536487  0.74927088  0.43541006  1
  C  C155  1  0.77225160  0.84696452  0.46830908  1
  C  C156  1  0.72834054  0.84650812  0.53154886  1
  C  C157  1  0.70611396  0.74845829  0.56418885  1
  C  C158  1  0.66211487  0.74808315  0.63338895  1
  C  C159  1  0.75108163  0.76244834  0.68580330  1
  C  C160  1  0.70339655  0.76263640  0.75518907  1
  C  C161  1  0.79076839  0.77792311  0.80702771  1
  C  C162  1  0.72932282  0.65091314  0.53134586  1
  C  C163  1  0.77308433  0.65137123  0.46799380  1
  I  I164  1  0.24927252  0.94463283  0.99705124  1
  I  I165  1  0.24911454  0.55753814  0.00244484  1
  I  I166  1  0.75034429  0.05661146  0.99734880  1
  I  I167  1  0.75028538  0.44392169  0.00260935  1
  I  I168  1  0.05564036  0.24944411  0.99739584  1
  I  I169  1  0.94357118  0.75051462  0.99710800  1
  I  I170  1  0.44280626  0.24929567  0.00264958  1
  I  I171  1  0.55637362  0.75052357  0.00244719  1
  I  I172  1  0.99981674  0.99997982  0.84452454  1
  I  I173  1  0.00099847  0.00009129  0.15836792  1
  I  I174  1  0.99922973  0.49939303  0.84064236  1
  I  I175  1  0.00021226  0.49980203  0.15579092  1
  I  I176  1  0.50081566  0.99957797  0.84061666  1
  I  I177  1  0.49979861  0.99979289  0.15576901  1
  I  I178  1  0.50034344  0.49997985  0.84345709  1
  I  I179  1  0.49942362  0.50020029  0.16013725  1
  N  N180  1  0.25837405  0.21315840  0.87421636  1
  N  N181  1  0.24625626  0.21541614  0.12595270  1
  N  N182  1  0.21311392  0.74175555  0.87414363  1
  N  N183  1  0.21558312  0.75383653  0.12590731  1
  N  N184  1  0.78435586  0.24759438  0.12575721  1
  N  N185  1  0.78686641  0.25977751  0.87401171  1
  N  N186  1  0.75253131  0.78439101  0.12573559  1
  N  N187  1  0.74034901  0.78686359  0.87396390  1
