# generated using pymatgen
data_H23PbC11I4N3
_symmetry_space_group_name_H-M   'P 1'
_cell_length_a   12.30501600
_cell_length_b   12.14333540
_cell_length_c   18.48942633
_cell_angle_alpha   87.86257851
_cell_angle_beta   88.02399465
_cell_angle_gamma   89.56424517
_symmetry_Int_Tables_number   1
_chemical_formula_structural   H23PbC11I4N3
_chemical_formula_sum   'H92 Pb4 C44 I16 N12'
_cell_volume   2759.14370982
_cell_formula_units_Z   4
loop_
 _symmetry_equiv_pos_site_id
 _symmetry_equiv_pos_as_xyz
  1  'x, y, z'
loop_
 _atom_site_type_symbol
 _atom_site_label
 _atom_site_symmetry_multiplicity
 _atom_site_fract_x
 _atom_site_fract_y
 _atom_site_fract_z
 _atom_site_occupancy
  H  H0  1  0.33497468  0.23952594  0.90740705  1
  H  H1  1  0.27574954  0.13155976  0.87149411  1
  H  H2  1  0.20272176  0.24465563  0.88744368  1
  H  H3  1  0.30868715  0.35018481  0.79637144  1
  H  H4  1  0.39318555  0.23162936  0.78402987  1
  H  H5  1  0.14883929  0.24570255  0.75271746  1
  H  H6  1  0.22941135  0.12553037  0.74679076  1
  H  H7  1  0.26980982  0.33882534  0.65486344  1
  H  H8  1  0.34788647  0.21676343  0.64915035  1
  H  H9  1  0.10286668  0.23155260  0.62462433  1
  H  H10  1  0.18417781  0.11315236  0.61363750  1
  H  H11  1  0.20934352  0.42119980  0.52632328  1
  H  H12  1  0.26225976  0.39770341  0.38404339  1
  H  H13  1  0.36543474  0.12653392  0.34384497  1
  H  H14  1  0.22798044  0.08770179  0.34172210  1
  H  H15  1  0.32391213  0.30538560  0.27828198  1
  H  H16  1  0.18443610  0.27192293  0.27953260  1
  H  H17  1  0.36542991  0.13790696  0.20238144  1
  H  H18  1  0.22362139  0.11106571  0.20222963  1
  H  H19  1  0.19597249  0.29312959  0.14501810  1
  H  H20  1  0.28372555  0.21404879  0.09619796  1
  H  H21  1  0.32938461  0.31830431  0.14438937  1
  H  H22  1  0.23444511  0.08221522  0.48568556  1
  H  H23  1  0.24248274  0.66419534  0.90640714  1
  H  H24  1  0.13165312  0.71552570  0.86705810  1
  H  H25  1  0.23746456  0.79783417  0.87694410  1
  H  H26  1  0.34893390  0.68456652  0.79526040  1
  H  H27  1  0.23167085  0.60084485  0.78671113  1
  H  H28  1  0.24662678  0.84774281  0.74321621  1
  H  H29  1  0.12834943  0.76770761  0.73995764  1
  H  H30  1  0.33982276  0.72628580  0.65119368  1
  H  H31  1  0.21990683  0.64810860  0.64748703  1
  H  H32  1  0.23322411  0.89738426  0.61470743  1
  H  H33  1  0.11672752  0.81634288  0.60631844  1
  H  H34  1  0.42035655  0.79021718  0.52037487  1
  H  H35  1  0.39701555  0.73871078  0.37986311  1
  H  H36  1  0.13115711  0.63482676  0.34543837  1
  H  H37  1  0.09057280  0.77441534  0.33611460  1
  H  H38  1  0.30395650  0.67449624  0.27564346  1
  H  H39  1  0.26970360  0.81653892  0.26862754  1
  H  H40  1  0.13382916  0.63028101  0.20789076  1
  H  H41  1  0.10956781  0.77497858  0.19538101  1
  H  H42  1  0.28136948  0.78957647  0.12825048  1
  H  H43  1  0.20209621  0.69662527  0.09366304  1
  H  H44  1  0.30821425  0.65323413  0.14350798  1
  H  H45  1  0.08633426  0.76805990  0.48056064  1
  H  H46  1  0.75180586  0.16796872  0.09362961  1
  H  H47  1  0.86564437  0.21264824  0.12876785  1
  H  H48  1  0.76341511  0.30211176  0.11303068  1
  H  H49  1  0.64868626  0.19928956  0.20372499  1
  H  H50  1  0.76134318  0.10905610  0.21757354  1
  H  H51  1  0.75630765  0.35705177  0.24753165  1
  H  H52  1  0.87314900  0.27216020  0.25315169  1
  H  H53  1  0.66186709  0.23238159  0.34387834  1
  H  H54  1  0.78215032  0.15272715  0.34952488  1
  H  H55  1  0.76622168  0.39994704  0.37807266  1
  H  H56  1  0.88401483  0.31801826  0.38721011  1
  H  H57  1  0.58095791  0.28154931  0.47335713  1
  H  H58  1  0.60575554  0.22693211  0.61575864  1
  H  H59  1  0.87457477  0.13273237  0.65858574  1
  H  H60  1  0.90976781  0.27344733  0.65807869  1
  H  H61  1  0.69665443  0.17427420  0.72217435  1
  H  H62  1  0.72802438  0.31638141  0.71893222  1
  H  H63  1  0.85999726  0.13623880  0.80006487  1
  H  H64  1  0.88669158  0.27999809  0.79762788  1
  H  H65  1  0.70499756  0.30998078  0.85228819  1
  H  H66  1  0.78421404  0.22523201  0.90348329  1
  H  H67  1  0.68324452  0.17300477  0.85600450  1
  H  H68  1  0.91547559  0.27217727  0.51498544  1
  H  H69  1  0.82908363  0.75896032  0.09289369  1
  H  H70  1  0.76457753  0.86603915  0.13072063  1
  H  H71  1  0.69795505  0.74955456  0.12170741  1
  H  H72  1  0.81199387  0.65013139  0.20518984  1
  H  H73  1  0.89151339  0.77208533  0.21097604  1
  H  H74  1  0.64923479  0.75337586  0.25676289  1
  H  H75  1  0.72797130  0.87338698  0.25939195  1
  H  H76  1  0.77202477  0.65880500  0.34755816  1
  H  H77  1  0.84921618  0.78059168  0.35000954  1
  H  H78  1  0.60454086  0.76588748  0.38718623  1
  H  H79  1  0.68409973  0.88458358  0.39331358  1
  H  H80  1  0.71865122  0.57701237  0.47931882  1
  H  H81  1  0.76992390  0.60140127  0.61919116  1
  H  H82  1  0.86455249  0.87311514  0.65545780  1
  H  H83  1  0.72637539  0.91294582  0.66191049  1
  H  H84  1  0.82187834  0.69572573  0.72420194  1
  H  H85  1  0.68283398  0.73313042  0.72965771  1
  H  H86  1  0.86884142  0.86371767  0.79408233  1
  H  H87  1  0.72734674  0.89715557  0.80170241  1
  H  H88  1  0.70074384  0.71736326  0.86528069  1
  H  H89  1  0.78664686  0.79958670  0.90664366  1
  H  H90  1  0.83508773  0.69155208  0.85850226  1
  H  H91  1  0.72634730  0.91620528  0.51986527  1
  Pb  Pb92  1  0.03059978  0.99632131  0.00978037  1
  Pb  Pb93  1  0.00380429  0.48087154  1.00051324  1
  Pb  Pb94  1  0.51968504  0.98409577  0.99387535  1
  Pb  Pb95  1  0.52229325  0.49584604  0.99937508  1
  C  C96  1  0.30940965  0.25989134  0.79481238  1
  C  C97  1  0.23219276  0.21610638  0.74042548  1
  C  C98  1  0.26569350  0.24850392  0.66222273  1
  C  C99  1  0.18560426  0.20393302  0.60847048  1
  C  C100  1  0.21141118  0.23950030  0.53153064  1
  C  C101  1  0.22054078  0.34395395  0.49910029  1
  C  C102  1  0.24864807  0.33162216  0.42443686  1
  C  C103  1  0.25628059  0.21976420  0.41228972  1
  C  C104  1  0.28156957  0.15989887  0.34436679  1
  C  C105  1  0.26688388  0.23599487  0.27756642  1
  C  C106  1  0.28430283  0.17594926  0.20755725  1
  C  C107  1  0.25986952  0.68545198  0.79299668  1
  C  C108  1  0.21778401  0.76379648  0.73426704  1
  C  C109  1  0.25065363  0.73087742  0.65779633  1
  C  C110  1  0.20631930  0.81423877  0.60117274  1
  C  C111  1  0.24134387  0.78990050  0.52516092  1
  C  C112  1  0.34434780  0.78012683  0.49325874  1
  C  C113  1  0.33211900  0.75283178  0.41974458  1
  C  C114  1  0.22186837  0.74628836  0.40763373  1
  C  C115  1  0.16252193  0.71999788  0.34111318  1
  C  C116  1  0.23526090  0.73297193  0.27234000  1
  C  C117  1  0.17246161  0.71175520  0.20493979  1
  C  C118  1  0.73757687  0.19495864  0.20562545  1
  C  C119  1  0.78380934  0.27185726  0.25944728  1
  C  C120  1  0.75106597  0.23654852  0.33725331  1
  C  C121  1  0.79453325  0.31562289  0.39230232  1
  C  C122  1  0.75999680  0.28487236  0.46862551  1
  C  C123  1  0.65732922  0.27052091  0.50057092  1
  C  C124  1  0.67031867  0.24193277  0.57518127  1
  C  C125  1  0.78077911  0.23910422  0.58773077  1
  C  C126  1  0.83995577  0.21711612  0.65615767  1
  C  C127  1  0.76423116  0.23319002  0.72229457  1
  C  C128  1  0.82270908  0.21837254  0.79286295  1
  C  C129  1  0.80880876  0.74049519  0.20615802  1
  C  C130  1  0.73226224  0.78278912  0.26501458  1
  C  C131  1  0.76709665  0.74924846  0.34101440  1
  C  C132  1  0.68709547  0.79383526  0.39873340  1
  C  C133  1  0.71529215  0.75869096  0.47409866  1
  C  C134  1  0.72885173  0.65451121  0.50578144  1
  C  C135  1  0.75551812  0.66736886  0.57934618  1
  C  C136  1  0.75795667  0.77931912  0.59155645  1
  C  C137  1  0.78073769  0.84039584  0.65819213  1
  C  C138  1  0.76580893  0.76671406  0.72680222  1
  C  C139  1  0.78628886  0.82959216  0.79441694  1
  I  I140  1  0.26968795  0.99659824  0.04990311  1
  I  I141  1  0.25664027  0.47594512  0.97373646  1
  I  I142  1  0.77448273  0.98963192  0.97953213  1
  I  I143  1  0.75340751  0.50543768  0.06639380  1
  I  I144  1  0.99769759  0.24326455  0.94856409  1
  I  I145  1  0.01321215  0.73836523  0.02653110  1
  I  I146  1  0.49554099  0.24038342  0.00495769  1
  I  I147  1  0.45778967  0.74196917  0.96851274  1
  I  I148  1  0.07450947  0.97476940  0.84021046  1
  I  I149  1  0.97995484  0.00928470  0.18252010  1
  I  I150  1  0.97760279  0.55258475  0.82810383  1
  I  I151  1  0.03557780  0.41469241  0.16630271  1
  I  I152  1  0.52495415  0.03051133  0.81758482  1
  I  I153  1  0.54279232  0.96316441  0.16317818  1
  I  I154  1  0.58913284  0.48574709  0.83159761  1
  I  I155  1  0.44137323  0.49733767  0.17141767  1
  N  N156  1  0.27882483  0.21664664  0.87003249  1
  N  N157  1  0.27271754  0.25482120  0.14398040  1
  N  N158  1  0.23349439  0.16536722  0.47787907  1
  N  N159  1  0.21590492  0.71857572  0.86568371  1
  N  N160  1  0.24645826  0.71308355  0.13861497  1
  N  N161  1  0.16814297  0.76907781  0.47227595  1
  N  N162  1  0.78179478  0.22142906  0.13016159  1
  N  N163  1  0.74375572  0.23272623  0.85546756  1
  N  N164  1  0.83376849  0.26485662  0.52233240  1
  N  N165  1  0.77261367  0.78103874  0.13314218  1
  N  N166  1  0.77598331  0.75467517  0.86083841  1
  N  N167  1  0.73383241  0.83331533  0.52691254  1
