# generated using pymatgen
data_H24PbC12S(I2N)2
_symmetry_space_group_name_H-M   'P 1'
_cell_length_a   12.46924704
_cell_length_b   12.43754962
_cell_length_c   19.19735761
_cell_angle_alpha   90.40427250
_cell_angle_beta   90.27808237
_cell_angle_gamma   90.13149801
_symmetry_Int_Tables_number   1
_chemical_formula_structural   H24PbC12S(I2N)2
_chemical_formula_sum   'H96 Pb4 C48 S4 I16 N8'
_cell_volume   2977.14101738
_cell_formula_units_Z   4
loop_
 _symmetry_equiv_pos_site_id
 _symmetry_equiv_pos_as_xyz
  1  'x, y, z'
loop_
 _atom_site_type_symbol
 _atom_site_label
 _atom_site_symmetry_multiplicity
 _atom_site_fract_x
 _atom_site_fract_y
 _atom_site_fract_z
 _atom_site_occupancy
  H  H0  1  0.21341668  0.41645149  0.89197700  1
  H  H1  1  0.31254213  0.32788992  0.89768108  1
  H  H2  1  0.18516330  0.28672681  0.89387584  1
  H  H3  1  0.29455704  0.41109436  0.78170756  1
  H  H4  1  0.16528953  0.34993646  0.77622833  1
  H  H5  1  0.25222908  0.16730117  0.78583251  1
  H  H6  1  0.37869611  0.22874327  0.79831015  1
  H  H7  1  0.36948870  0.30797183  0.67820215  1
  H  H8  1  0.36578066  0.16612886  0.67822860  1
  H  H9  1  0.16286940  0.17363227  0.66736651  1
  H  H10  1  0.17081965  0.31454888  0.65926408  1
  H  H11  1  0.23593423  0.05223071  0.55945654  1
  H  H12  1  0.28071743  0.08219162  0.42647197  1
  H  H13  1  0.34685629  0.24521789  0.34576774  1
  H  H14  1  0.33691116  0.37769787  0.37867540  1
  H  H15  1  0.14515812  0.23853509  0.33191139  1
  H  H16  1  0.13666621  0.36960489  0.36685294  1
  H  H17  1  0.25059402  0.43769398  0.26642365  1
  H  H18  1  0.12175482  0.38917821  0.24416137  1
  H  H19  1  0.33279958  0.26701467  0.22069901  1
  H  H20  1  0.20204466  0.21276656  0.20450002  1
  H  H21  1  0.27838811  0.29109643  0.10057066  1
  H  H22  1  0.29520776  0.40899349  0.14064279  1
  H  H23  1  0.17062919  0.36176597  0.12473152  1
  H  H24  1  0.41535256  0.78528425  0.89235360  1
  H  H25  1  0.32702343  0.68545060  0.89743184  1
  H  H26  1  0.28591208  0.81304808  0.89476656  1
  H  H27  1  0.40978900  0.70383678  0.78157636  1
  H  H28  1  0.34969754  0.83342317  0.77733899  1
  H  H29  1  0.16695216  0.74733576  0.78614657  1
  H  H30  1  0.22690483  0.61997185  0.79736247  1
  H  H31  1  0.30689225  0.62988809  0.67741917  1
  H  H32  1  0.16547327  0.63344954  0.67733348  1
  H  H33  1  0.17379086  0.83704590  0.66836440  1
  H  H34  1  0.31433288  0.82912713  0.66012249  1
  H  H35  1  0.05254014  0.76432437  0.55978034  1
  H  H36  1  0.08235654  0.71934149  0.42659574  1
  H  H37  1  0.24512455  0.65253875  0.34515708  1
  H  H38  1  0.37724302  0.66292302  0.37809313  1
  H  H39  1  0.23881851  0.85477579  0.33299028  1
  H  H40  1  0.36951455  0.86358669  0.36789898  1
  H  H41  1  0.43736657  0.74992555  0.26630609  1
  H  H42  1  0.38935043  0.87904010  0.24539289  1
  H  H43  1  0.26685958  0.66748434  0.21999360  1
  H  H44  1  0.21316210  0.79870480  0.20516203  1
  H  H45  1  0.29094558  0.72241584  0.10048676  1
  H  H46  1  0.40830945  0.70574084  0.14022371  1
  H  H47  1  0.36200968  0.83064221  0.12546035  1
  H  H48  1  0.58577167  0.27269725  0.10560040  1
  H  H49  1  0.67489443  0.17371081  0.10348562  1
  H  H50  1  0.71595139  0.30076031  0.10472290  1
  H  H51  1  0.59063514  0.19945269  0.21856100  1
  H  H52  1  0.65032473  0.32996438  0.22120993  1
  H  H53  1  0.83347439  0.24452089  0.21433491  1
  H  H54  1  0.77418960  0.11669340  0.20300057  1
  H  H55  1  0.69314824  0.12833558  0.32239562  1
  H  H56  1  0.83458717  0.13267412  0.32270545  1
  H  H57  1  0.82620299  0.33619376  0.33283536  1
  H  H58  1  0.68550752  0.32784544  0.34061705  1
  H  H59  1  0.94686942  0.26220321  0.44038324  1
  H  H60  1  0.91696941  0.21806455  0.57339215  1
  H  H61  1  0.75406955  0.15271070  0.65424734  1
  H  H62  1  0.62196716  0.16321428  0.62168220  1
  H  H63  1  0.76133220  0.35464356  0.66908938  1
  H  H64  1  0.63033357  0.36393505  0.63482962  1
  H  H65  1  0.56234304  0.24908196  0.73440670  1
  H  H66  1  0.61266318  0.37674537  0.75847064  1
  H  H67  1  0.73459279  0.16337402  0.77582459  1
  H  H68  1  0.78655645  0.29325467  0.79736979  1
  H  H69  1  0.70826457  0.20411635  0.89785666  1
  H  H70  1  0.59287351  0.18713355  0.85586105  1
  H  H71  1  0.63462041  0.31281577  0.87790168  1
  H  H72  1  0.72996871  0.58426628  0.10520272  1
  H  H73  1  0.82790884  0.67461693  0.10442564  1
  H  H74  1  0.70078031  0.71438378  0.10438339  1
  H  H75  1  0.80158807  0.59020576  0.21934867  1
  H  H76  1  0.67114735  0.64897893  0.22032564  1
  H  H77  1  0.75514957  0.83314656  0.21443154  1
  H  H78  1  0.88322222  0.77530534  0.20432657  1
  H  H79  1  0.87107780  0.69381248  0.32354964  1
  H  H80  1  0.86679658  0.83554714  0.32387069  1
  H  H81  1  0.66378534  0.82638468  0.33222771  1
  H  H82  1  0.67194519  0.68531761  0.33984145  1
  H  H83  1  0.73776378  0.94761955  0.44063835  1
  H  H84  1  0.78226803  0.91766528  0.57379947  1
  H  H85  1  0.84741904  0.75457683  0.65489279  1
  H  H86  1  0.83698219  0.62214716  0.62195319  1
  H  H87  1  0.64603637  0.76073698  0.66843224  1
  H  H88  1  0.63667153  0.62958691  0.63370206  1
  H  H89  1  0.75188632  0.56177773  0.73416372  1
  H  H90  1  0.62409711  0.61109897  0.75714566  1
  H  H91  1  0.83664062  0.73449347  0.77702621  1
  H  H92  1  0.70713472  0.78652893  0.79666627  1
  H  H93  1  0.79477418  0.70799800  0.89837137  1
  H  H94  1  0.81015232  0.59179962  0.85642843  1
  H  H95  1  0.68548926  0.63493788  0.87717172  1
  Pb  Pb96  1  0.00475866  0.99985831  0.99866567  1
  Pb  Pb97  1  0.99456773  0.49944493  0.99343435  1
  Pb  Pb98  1  0.50352942  0.00181208  0.99385334  1
  Pb  Pb99  1  0.49486985  0.50320315  0.00973293  1
  C  C100  1  0.24716005  0.34019791  0.79613750  1
  C  C101  1  0.30099870  0.23764543  0.77130486  1
  C  C102  1  0.31962676  0.23818699  0.69252973  1
  C  C103  1  0.21501074  0.23942773  0.64937568  1
  C  C104  1  0.23387010  0.22562449  0.57273210  1
  C  C105  1  0.24513599  0.13101718  0.53568639  1
  C  C106  1  0.26995211  0.14705485  0.46426463  1
  C  C107  1  0.27807021  0.25384726  0.44643834  1
  C  C108  1  0.29442485  0.29998507  0.37534639  1
  C  C109  1  0.18809267  0.31590739  0.33578400  1
  C  C110  1  0.20096911  0.36411690  0.26334500  1
  C  C111  1  0.24882907  0.28746762  0.20965616  1
  C  C112  1  0.33926535  0.75129964  0.79650359  1
  C  C113  1  0.23655603  0.69797705  0.77111604  1
  C  C114  1  0.23737937  0.67973168  0.69214998  1
  C  C115  1  0.23923183  0.78479456  0.64992342  1
  C  C116  1  0.22549142  0.76604828  0.57310474  1
  C  C117  1  0.13118866  0.75493229  0.53599645  1
  C  C118  1  0.14709990  0.72992884  0.46438460  1
  C  C119  1  0.25365040  0.72152837  0.44643861  1
  C  C120  1  0.29976780  0.70525196  0.37515579  1
  C  C121  1  0.31591431  0.81195941  0.33642361  1
  C  C122  1  0.36407172  0.79949908  0.26382037  1
  C  C123  1  0.28744148  0.75178565  0.20977675  1
  C  C124  1  0.66101683  0.24680943  0.20323501  1
  C  C125  1  0.76379430  0.19510536  0.22917233  1
  C  C126  1  0.76266418  0.17838609  0.30805096  1
  C  C127  1  0.76052106  0.28383057  0.35073948  1
  C  C128  1  0.77397585  0.26579117  0.42747998  1
  C  C129  1  0.86824264  0.25408697  0.46437887  1
  C  C130  1  0.85223321  0.22960846  0.53584596  1
  C  C131  1  0.74563095  0.22222390  0.55389722  1
  C  C132  1  0.69955638  0.20560829  0.62502586  1
  C  C133  1  0.68398037  0.31185656  0.66532552  1
  C  C134  1  0.63642328  0.29758903  0.73796005  1
  C  C135  1  0.71270700  0.24597325  0.79018279  1
  C  C136  1  0.75423725  0.66023533  0.20334994  1
  C  C137  1  0.80495717  0.76395766  0.22972884  1
  C  C138  1  0.82121860  0.76323429  0.30875560  1
  C  C139  1  0.71589054  0.76069799  0.35048541  1
  C  C140  1  0.73380747  0.77422335  0.42740265  1
  C  C141  1  0.74577126  0.86876245  0.46451351  1
  C  C142  1  0.77052327  0.85274189  0.53608993  1
  C  C143  1  0.77784220  0.74587622  0.55402792  1
  C  C144  1  0.79461438  0.69969162  0.62519510  1
  C  C145  1  0.68871434  0.68340769  0.66473704  1
  C  C146  1  0.70304491  0.63556161  0.73733859  1
  C  C147  1  0.75397965  0.71241541  0.79023970  1
  S  S148  1  0.25425270  0.33438210  0.51855391  1
  S  S149  1  0.33394996  0.74531794  0.51872300  1
  S  S150  1  0.66544219  0.24601967  0.48180477  1
  S  S151  1  0.75366441  0.66544317  0.48166512  1
  I  I152  1  0.25522387  0.93470817  0.00234552  1
  I  I153  1  0.24607606  0.57140430  0.00481638  1
  I  I154  1  0.75122606  0.07274237  0.99605352  1
  I  I155  1  0.74275535  0.43415339  0.99557432  1
  I  I156  1  0.06647761  0.25370968  0.00253430  1
  I  I157  1  0.92747569  0.74928717  0.99610729  1
  I  I158  1  0.42909111  0.25356350  0.00294940  1
  I  I159  1  0.56749634  0.75085914  -0.00044555  1
  I  I160  1  0.00777989  0.99481510  0.83247613  1
  I  I161  1  0.01556610  0.99926657  0.16582217  1
  I  I162  1  0.98164240  0.49308111  0.82409210  1
  I  I163  1  0.99065950  0.50201402  0.15658469  1
  I  I164  1  0.50951932  0.00345168  0.82481357  1
  I  I165  1  0.50811623  0.00458411  0.15717520  1
  I  I166  1  0.48506660  0.50212269  0.84866197  1
  I  I167  1  0.48307893  0.50536583  0.17937269  1
  N  N168  1  0.23916267  0.34256226  0.87381907  1
  N  N169  1  0.24780509  0.34021371  0.13950490  1
  N  N170  1  0.34152343  0.75908458  0.87417572  1
  N  N171  1  0.34006041  0.75322883  0.13956648  1
  N  N172  1  0.65932766  0.24914700  0.12538886  1
  N  N173  1  0.65921926  0.23853070  0.85980594  1
  N  N174  1  0.75264921  0.65820497  0.12548537  1
  N  N175  1  0.75999381  0.65909881  0.85992919  1
