# generated using pymatgen
data_H24PbC12S(I2N)2
_symmetry_space_group_name_H-M   'P 1'
_cell_length_a   12.39621087
_cell_length_b   12.35966889
_cell_length_c   19.51854628
_cell_angle_alpha   90.59826658
_cell_angle_beta   90.25645499
_cell_angle_gamma   89.88681790
_symmetry_Int_Tables_number   1
_chemical_formula_structural   H24PbC12S(I2N)2
_chemical_formula_sum   'H96 Pb4 C48 S4 I16 N8'
_cell_volume   2990.29769614
_cell_formula_units_Z   4
loop_
 _symmetry_equiv_pos_site_id
 _symmetry_equiv_pos_as_xyz
  1  'x, y, z'
loop_
 _atom_site_type_symbol
 _atom_site_label
 _atom_site_symmetry_multiplicity
 _atom_site_fract_x
 _atom_site_fract_y
 _atom_site_fract_z
 _atom_site_occupancy
  H  H0  1  0.18153461  0.11315599  0.86590418  1
  H  H1  1  0.29658616  0.17570798  0.89157002  1
  H  H2  1  0.17727089  0.23475254  0.90264251  1
  H  H3  1  0.14700715  0.25361793  0.78285687  1
  H  H4  1  0.27371470  0.31225802  0.80517629  1
  H  H5  1  0.24070409  0.08129396  0.74742191  1
  H  H6  1  0.36534504  0.13508971  0.77550075  1
  H  H7  1  0.35020596  0.28081845  0.68526033  1
  H  H8  1  0.36691939  0.14790857  0.65391491  1
  H  H9  1  0.16912285  0.13441580  0.62946191  1
  H  H10  1  0.14949471  0.26759259  0.66092693  1
  H  H11  1  0.22485518  0.43495206  0.58692776  1
  H  H12  1  0.34739579  0.12995229  0.38402970  1
  H  H13  1  0.39698250  0.25926852  0.36371584  1
  H  H14  1  0.16508447  0.18143740  0.34068472  1
  H  H15  1  0.20834744  0.31560508  0.32763046  1
  H  H16  1  0.29782776  0.11386132  0.25321287  1
  H  H17  1  0.34862532  0.24605568  0.24316247  1
  H  H18  1  0.16904484  0.30906668  0.19805909  1
  H  H19  1  0.11506027  0.17744305  0.21084619  1
  H  H20  1  0.24198186  0.10564084  0.12915974  1
  H  H21  1  0.29662013  0.22621521  0.11568153  1
  H  H22  1  0.16830736  0.20361411  0.09444900  1
  H  H23  1  0.26682705  0.10623303  0.50751171  1
  H  H24  1  0.11267732  0.81812890  0.86697210  1
  H  H25  1  0.17508027  0.70215315  0.89171113  1
  H  H26  1  0.23309809  0.82183377  0.90429224  1
  H  H27  1  0.25254658  0.85283321  0.78445709  1
  H  H28  1  0.31138202  0.72505032  0.80528613  1
  H  H29  1  0.08121265  0.76008471  0.74882644  1
  H  H30  1  0.13428602  0.63449354  0.77540572  1
  H  H31  1  0.27965216  0.64927303  0.68454292  1
  H  H32  1  0.14681751  0.63304726  0.65378370  1
  H  H33  1  0.13319929  0.83117325  0.63099497  1
  H  H34  1  0.26573418  0.85092830  0.66223421  1
  H  H35  1  0.43296596  0.77618071  0.58714831  1
  H  H36  1  0.12991887  0.65311182  0.38409639  1
  H  H37  1  0.25851934  0.60118052  0.36374107  1
  H  H38  1  0.18230204  0.83454120  0.34131627  1
  H  H39  1  0.31605432  0.79004435  0.32789840  1
  H  H40  1  0.11471160  0.70184329  0.25332927  1
  H  H41  1  0.24613130  0.64882777  0.24277430  1
  H  H42  1  0.31086305  0.82668857  0.19759035  1
  H  H43  1  0.18092962  0.88401353  0.21249433  1
  H  H44  1  0.10485884  0.75847974  0.13143079  1
  H  H45  1  0.22373092  0.70062784  0.11516645  1
  H  H46  1  0.20285992  0.82972001  0.09526984  1
  H  H47  1  0.10583873  0.73302062  0.50800940  1
  H  H48  1  0.88565470  0.33328620  0.13634729  1
  H  H49  1  0.83194457  0.21474259  0.10812950  1
  H  H50  1  0.76640105  0.33148178  0.09765594  1
  H  H51  1  0.74544380  0.35638237  0.21917179  1
  H  H52  1  0.68836267  0.23032743  0.19306877  1
  H  H53  1  0.91819363  0.26033061  0.25132431  1
  H  H54  1  0.86308480  0.13653789  0.22187953  1
  H  H55  1  0.71896930  0.15073517  0.31362997  1
  H  H56  1  0.85182499  0.13306622  0.34383997  1
  H  H57  1  0.86593903  0.33123646  0.37009389  1
  H  H58  1  0.73313041  0.35143459  0.33957498  1
  H  H59  1  0.56684267  0.27757789  0.41376665  1
  H  H60  1  0.87014462  0.15348417  0.61533929  1
  H  H61  1  0.74146595  0.10206416  0.63554685  1
  H  H62  1  0.81685381  0.33597220  0.65832895  1
  H  H63  1  0.68345764  0.29194128  0.67167467  1
  H  H64  1  0.88487019  0.20683033  0.74680410  1
  H  H65  1  0.75342617  0.15397469  0.75709309  1
  H  H66  1  0.68731850  0.33436200  0.80102241  1
  H  H67  1  0.81757906  0.39041322  0.78705945  1
  H  H68  1  0.89310952  0.27499225  0.86977635  1
  H  H69  1  0.77689620  0.20911633  0.88291098  1
  H  H70  1  0.78905541  0.33973445  0.90473907  1
  H  H71  1  0.89390529  0.23344152  0.49209360  1
  H  H72  1  0.66622120  0.88742320  0.13695505  1
  H  H73  1  0.78431457  0.83251264  0.10927283  1
  H  H74  1  0.66737854  0.76783976  0.09734243  1
  H  H75  1  0.64262208  0.74631355  0.21836279  1
  H  H76  1  0.76814394  0.68859788  0.19322499  1
  H  H77  1  0.73842994  0.91927943  0.25226653  1
  H  H78  1  0.86153658  0.86366260  0.22362100  1
  H  H79  1  0.84827423  0.71893558  0.31445155  1
  H  H80  1  0.86565030  0.85218346  0.34539249  1
  H  H81  1  0.66834121  0.86643769  0.37036097  1
  H  H82  1  0.64809729  0.73332334  0.33925618  1
  H  H83  1  0.72307910  0.56604774  0.41343315  1
  H  H84  1  0.84613543  0.87118373  0.61678667  1
  H  H85  1  0.89779295  0.74222133  0.63711632  1
  H  H86  1  0.66451639  0.81842917  0.65824167  1
  H  H87  1  0.70835563  0.68438455  0.67139471  1
  H  H88  1  0.79337780  0.88608952  0.74799061  1
  H  H89  1  0.84601787  0.75429911  0.75836028  1
  H  H90  1  0.66559065  0.68890976  0.80071198  1
  H  H91  1  0.61005348  0.81958691  0.78619851  1
  H  H92  1  0.72457026  0.89548845  0.87031849  1
  H  H93  1  0.78975075  0.77874165  0.88457692  1
  H  H94  1  0.65920887  0.79176662  0.90431942  1
  H  H95  1  0.76613525  0.89463355  0.49272017  1
  Pb  Pb96  1  0.99049082  0.99574527  0.99143452  1
  Pb  Pb97  1  0.00806252  0.50838507  0.00381609  1
  Pb  Pb98  1  0.50479026  0.01139505  0.00493763  1
  Pb  Pb99  1  0.49318753  0.49487105  0.00039215  1
  C  C100  1  0.22990065  0.23553467  0.79910191  1
  C  C101  1  0.28792737  0.15678446  0.75155242  1
  C  C102  1  0.30956202  0.20189966  0.68037975  1
  C  C103  1  0.20822036  0.21406465  0.63528285  1
  C  C104  1  0.23512155  0.25862015  0.56599836  1
  C  C105  1  0.24107582  0.36758860  0.55224830  1
  C  C106  1  0.29319878  0.25447604  0.45138631  1
  C  C107  1  0.32462057  0.21596081  0.38120642  1
  C  C108  1  0.23563562  0.23070389  0.32690947  1
  C  C109  1  0.27502543  0.20017453  0.25517205  1
  C  C110  1  0.18957320  0.22274990  0.20131870  1
  C  C111  1  0.26538780  0.19452582  0.50775279  1
  C  C112  1  0.23503217  0.76956629  0.79995653  1
  C  C113  1  0.15621191  0.71202445  0.75209121  1
  C  C114  1  0.20091260  0.69030169  0.68046274  1
  C  C115  1  0.21270697  0.79191960  0.63622145  1
  C  C116  1  0.25741729  0.76502711  0.56655302  1
  C  C117  1  0.36613773  0.75952258  0.55243111  1
  C  C118  1  0.25401256  0.70703964  0.45135058  1
  C  C119  1  0.21588213  0.67478961  0.38111246  1
  C  C120  1  0.23132600  0.76326057  0.32717461  1
  C  C121  1  0.20101828  0.72335263  0.25525688  1
  C  C122  1  0.22450563  0.80826367  0.20178824  1
  C  C123  1  0.19387682  0.73456967  0.50817462  1
  C  C124  1  0.76440655  0.27449122  0.20059185  1
  C  C125  1  0.84242440  0.21390869  0.24697764  1
  C  C126  1  0.79789303  0.19113581  0.31829769  1
  C  C127  1  0.78648464  0.29221867  0.36448403  1
  C  C128  1  0.74226466  0.26476975  0.43383844  1
  C  C129  1  0.63362501  0.25952867  0.44800610  1
  C  C130  1  0.74583515  0.20618996  0.54819429  1
  C  C131  1  0.78403823  0.17517781  0.61833312  1
  C  C132  1  0.76823939  0.26514304  0.67247505  1
  C  C133  1  0.79841813  0.22808302  0.74456823  1
  C  C134  1  0.77372193  0.31529269  0.79759739  1
  C  C135  1  0.80588751  0.23401944  0.49179072  1
  C  C136  1  0.72431399  0.76510839  0.20073923  1
  C  C137  1  0.78459064  0.84306615  0.24803359  1
  C  C138  1  0.80777574  0.79813391  0.31923488  1
  C  C139  1  0.70732591  0.78668315  0.36463860  1
  C  C140  1  0.73534902  0.74228075  0.43396648  1
  C  C141  1  0.74115026  0.63333455  0.44784196  1
  C  C142  1  0.79371351  0.74635010  0.54891343  1
  C  C143  1  0.82467820  0.78487666  0.61941450  1
  C  C144  1  0.73514667  0.76930459  0.67279344  1
  C  C145  1  0.77200093  0.79952056  0.74537743  1
  C  C146  1  0.68491678  0.77542567  0.79750670  1
  C  C147  1  0.76573321  0.80632021  0.49236745  1
  S  S148  1  0.28279722  0.39119600  0.47011064  1
  S  S149  1  0.39025352  0.71800594  0.46978312  1
  S  S150  1  0.60954619  0.21790610  0.53004885  1
  S  S151  1  0.78276083  0.60957346  0.53025880  1
  I  I152  1  0.24921926  0.95980796  0.00232672  1
  I  I153  1  0.24648543  0.58710138  0.00095376  1
  I  I154  1  0.75098468  0.08092330  0.99704290  1
  I  I155  1  0.74767411  0.46366129  0.99871400  1
  I  I156  1  0.03964768  0.25227846  0.00292176  1
  I  I157  1  0.91688940  0.75336888  0.99778211  1
  I  I158  1  0.41152060  0.25235471  0.00200214  1
  I  I159  1  0.53481221  0.75475401  0.99739870  1
  I  I160  1  0.00952745  0.99666296  0.82494625  1
  I  I161  1  0.00135340  0.99308453  0.15081107  1
  I  I162  1  0.01940220  0.47560973  0.84242232  1
  I  I163  1  0.00127998  0.49873251  0.16997868  1
  I  I164  1  0.51482961  0.01285370  0.84327365  1
  I  I165  1  0.50763831  0.00596645  0.17152819  1
  I  I166  1  0.49634149  0.50043872  0.83597289  1
  I  I167  1  0.50443693  0.50499694  0.16466067  1
  N  N168  1  0.22161784  0.18692526  0.86894561  1
  N  N169  1  0.22687362  0.18766377  0.13171636  1
  N  N170  1  0.18610611  0.77749514  0.86991478  1
  N  N171  1  0.18700399  0.77153494  0.13227985  1
  N  N172  1  0.81463988  0.28801662  0.13156385  1
  N  N173  1  0.81005478  0.28157861  0.86747048  1
  N  N174  1  0.71106834  0.81578461  0.13178457  1
  N  N175  1  0.71780418  0.81222270  0.86791519  1
