# generated using pymatgen
data_H23PbC11I4N3
_symmetry_space_group_name_H-M   'P 1'
_cell_length_a   12.42803671
_cell_length_b   12.40183755
_cell_length_c   18.40044060
_cell_angle_alpha   89.66366257
_cell_angle_beta   89.79918997
_cell_angle_gamma   89.77896756
_symmetry_Int_Tables_number   1
_chemical_formula_structural   H23PbC11I4N3
_chemical_formula_sum   'H92 Pb4 C44 I16 N12'
_cell_volume   2835.98180561
_cell_formula_units_Z   4
loop_
 _symmetry_equiv_pos_site_id
 _symmetry_equiv_pos_as_xyz
  1  'x, y, z'
loop_
 _atom_site_type_symbol
 _atom_site_label
 _atom_site_symmetry_multiplicity
 _atom_site_fract_x
 _atom_site_fract_y
 _atom_site_fract_z
 _atom_site_occupancy
  H  H0  1  0.28788186  0.40093887  0.85775363  1
  H  H1  1  0.32506836  0.27609456  0.87531804  1
  H  H2  1  0.20259895  0.31479169  0.90072141  1
  H  H3  1  0.19222370  0.20371940  0.79270741  1
  H  H4  1  0.14136735  0.33666031  0.77956086  1
  H  H5  1  0.36941070  0.26160824  0.73616757  1
  H  H6  1  0.31798502  0.39359366  0.72437300  1
  H  H7  1  0.22057877  0.19088746  0.65560850  1
  H  H8  1  0.17428875  0.32416870  0.64201298  1
  H  H9  1  0.40107720  0.24477283  0.60277497  1
  H  H10  1  0.34887904  0.37445876  0.58401413  1
  H  H11  1  0.29161289  0.06833887  0.52695220  1
  H  H12  1  0.20417895  0.07297492  0.40373901  1
  H  H13  1  0.10446658  0.19867910  0.31665029  1
  H  H14  1  0.10596520  0.33816582  0.33471193  1
  H  H15  1  0.30033212  0.21009879  0.27584863  1
  H  H16  1  0.29534131  0.35111265  0.29052332  1
  H  H17  1  0.14804093  0.22661486  0.18515568  1
  H  H18  1  0.14226426  0.36733163  0.20121151  1
  H  H19  1  0.32911408  0.37952082  0.15596665  1
  H  H20  1  0.23987756  0.33259171  0.09448175  1
  H  H21  1  0.32608668  0.24890908  0.13490778  1
  H  H22  1  0.23359038  0.40071556  0.45897204  1
  H  H23  1  0.40064913  0.71350345  0.85885823  1
  H  H24  1  0.27641879  0.67579134  0.87575385  1
  H  H25  1  0.31358427  0.79890036  0.90076003  1
  H  H26  1  0.20367484  0.80906463  0.79223730  1
  H  H27  1  0.33616858  0.85981407  0.77927547  1
  H  H28  1  0.26307150  0.63136906  0.73698537  1
  H  H29  1  0.39409223  0.68316953  0.72486487  1
  H  H30  1  0.19061257  0.78007373  0.65536856  1
  H  H31  1  0.32295573  0.82681887  0.64132021  1
  H  H32  1  0.24562202  0.59911356  0.60382222  1
  H  H33  1  0.37475522  0.65123601  0.58499002  1
  H  H34  1  0.06901446  0.70949297  0.52674554  1
  H  H35  1  0.07388643  0.79650936  0.40270072  1
  H  H36  1  0.19864093  0.89622025  0.31543608  1
  H  H37  1  0.33799072  0.89502544  0.33431818  1
  H  H38  1  0.21134877  0.70175003  0.27495122  1
  H  H39  1  0.35173898  0.70473186  0.29136810  1
  H  H40  1  0.23063134  0.85561978  0.18463910  1
  H  H41  1  0.37041512  0.86055683  0.20306589  1
  H  H42  1  0.38278647  0.67199470  0.15727568  1
  H  H43  1  0.34243649  0.76595269  0.09556866  1
  H  H44  1  0.25533759  0.68082148  0.13104849  1
  H  H45  1  0.40070018  0.76661465  0.45962199  1
  H  H46  1  0.60370275  0.19423098  0.14461729  1
  H  H47  1  0.73083379  0.17242138  0.12292912  1
  H  H48  1  0.67633705  0.28913610  0.09914825  1
  H  H49  1  0.79518997  0.30599568  0.20619749  1
  H  H50  1  0.66101614  0.35361170  0.21834534  1
  H  H51  1  0.74070051  0.12818624  0.26468209  1
  H  H52  1  0.60849392  0.17827800  0.27619028  1
  H  H53  1  0.81035835  0.27832714  0.34418503  1
  H  H54  1  0.67741002  0.32537630  0.35688001  1
  H  H55  1  0.75525333  0.09819199  0.39764669  1
  H  H56  1  0.62614796  0.15120644  0.41567379  1
  H  H57  1  0.93148036  0.20988004  0.47371184  1
  H  H58  1  0.92569097  0.29627029  0.59719446  1
  H  H59  1  0.79962131  0.39427852  0.68400145  1
  H  H60  1  0.66040795  0.39286154  0.66520210  1
  H  H61  1  0.78817937  0.19792231  0.72442211  1
  H  H62  1  0.64775319  0.20217894  0.70841320  1
  H  H63  1  0.76831763  0.34819768  0.81622695  1
  H  H64  1  0.62780971  0.35223918  0.79900930  1
  H  H65  1  0.62126774  0.15956841  0.83993494  1
  H  H66  1  0.65621283  0.24902490  0.90376266  1
  H  H67  1  0.74879938  0.17006553  0.86660188  1
  H  H68  1  0.59913292  0.26501764  0.54063429  1
  H  H69  1  0.80905440  0.60254776  0.14459519  1
  H  H70  1  0.83133028  0.72941793  0.12326478  1
  H  H71  1  0.71478586  0.67658449  0.09901078  1
  H  H72  1  0.69645699  0.79490273  0.20581522  1
  H  H73  1  0.64824075  0.66078650  0.21795638  1
  H  H74  1  0.87223946  0.73932338  0.26449446  1
  H  H75  1  0.82249874  0.60719593  0.27643344  1
  H  H76  1  0.72074394  0.80999099  0.34388389  1
  H  H77  1  0.67480279  0.67678872  0.35734047  1
  H  H78  1  0.90004361  0.75625134  0.39663722  1
  H  H79  1  0.84974359  0.62626476  0.41530687  1
  H  H80  1  0.79078035  0.93166446  0.47391203  1
  H  H81  1  0.70469804  0.92635814  0.59780301  1
  H  H82  1  0.60624561  0.79977949  0.68527641  1
  H  H83  1  0.60875711  0.66033790  0.66660446  1
  H  H84  1  0.80254036  0.78862328  0.72402372  1
  H  H85  1  0.79980243  0.64803689  0.70795537  1
  H  H86  1  0.65294446  0.76763661  0.81691484  1
  H  H87  1  0.65057494  0.62701967  0.79960628  1
  H  H88  1  0.84257336  0.62044502  0.83991029  1
  H  H89  1  0.75270671  0.65614483  0.90409024  1
  H  H90  1  0.83093429  0.74847041  0.86648160  1
  H  H91  1  0.73438901  0.59890133  0.54090024  1
  Pb  Pb92  1  1.00352490  0.99742385  0.00327533  1
  Pb  Pb93  1  0.99554759  0.49135861  0.99659917  1
  Pb  Pb94  1  0.50253898  0.99640863  0.99691364  1
  Pb  Pb95  1  0.49707499  0.49990143  0.00340575  1
  C  C96  1  0.21503573  0.28885121  0.78735045  1
  C  C97  1  0.29490297  0.30787923  0.72595791  1
  C  C98  1  0.24697743  0.27550386  0.65301141  1
  C  C99  1  0.32639510  0.28889608  0.58941576  1
  C  C100  1  0.28165446  0.24948827  0.51882837  1
  C  C101  1  0.27050743  0.14248706  0.49876372  1
  C  C102  1  0.20068178  0.24400979  0.40774926  1
  C  C103  1  0.15699414  0.26543259  0.33360734  1
  C  C104  1  0.24626546  0.28067120  0.27603537  1
  C  C105  1  0.19570709  0.29664608  0.20183180  1
  C  C106  1  0.23712898  0.31313267  0.46131916  1
  C  C107  1  0.28879271  0.78609050  0.78723953  1
  C  C108  1  0.30835401  0.70617965  0.72629090  1
  C  C109  1  0.27531691  0.75389274  0.65297340  1
  C  C110  1  0.28922360  0.67388069  0.59009905  1
  C  C111  1  0.24980291  0.71857946  0.51905984  1
  C  C112  1  0.14303903  0.73007052  0.49855874  1
  C  C113  1  0.24438190  0.80005306  0.40756826  1
  C  C114  1  0.26576765  0.84390340  0.33326148  1
  C  C115  1  0.28209457  0.75497409  0.27591385  1
  C  C116  1  0.30023252  0.80714089  0.20214608  1
  C  C117  1  0.31332627  0.76318230  0.46155990  1
  C  C118  1  0.71084714  0.28102851  0.21162789  1
  C  C119  1  0.69368807  0.20240196  0.27422483  1
  C  C120  1  0.72576282  0.25226226  0.34663254  1
  C  C121  1  0.71163881  0.17331284  0.41066121  1
  C  C122  1  0.75056146  0.21787083  0.48141524  1
  C  C123  1  0.85719337  0.22987958  0.50182417  1
  C  C124  1  0.75510907  0.29845037  0.59261023  1
  C  C125  1  0.73306396  0.34174976  0.66672667  1
  C  C126  1  0.71740398  0.25164473  0.72382605  1
  C  C127  1  0.69933247  0.29996794  0.79848310  1
  C  C128  1  0.68654727  0.26147193  0.53887902  1
  C  C129  1  0.72090337  0.71008590  0.21139884  1
  C  C130  1  0.79815184  0.69266142  0.27424350  1
  C  C131  1  0.74738562  0.72523058  0.34655555  1
  C  C132  1  0.82593674  0.71162437  0.41031313  1
  C  C133  1  0.78127563  0.75052441  0.48126757  1
  C  C134  1  0.76986176  0.85735628  0.50186605  1
  C  C135  1  0.70160059  0.75534535  0.59307186  1
  C  C136  1  0.65918093  0.73317166  0.66762843  1
  C  C137  1  0.74974112  0.71752705  0.72388020  1
  C  C138  1  0.70197173  0.69879407  0.79889660  1
  C  C139  1  0.73781593  0.68649677  0.53897201  1
  I  I140  1  0.26109301  0.91849419  1.00040072  1
  I  I141  1  0.24413735  0.55651520  0.00232095  1
  I  I142  1  0.75544996  0.05584995  0.00581880  1
  I  I143  1  0.74213255  0.42949167  0.99428002  1
  I  I144  1  0.08608317  0.25162328  0.00308620  1
  I  I145  1  0.94814058  0.74776173  0.00210891  1
  I  I146  1  0.45015051  0.24789396  0.99076062  1
  I  I147  1  0.57522920  0.74381144  0.00326071  1
  I  I148  1  0.98033687  0.99602131  0.83091546  1
  I  I149  1  0.00620757  0.99382463  0.18123080  1
  I  I150  1  0.99291257  0.50005948  0.81698186  1
  I  I151  1  0.97905455  0.49781086  0.16810693  1
  I  I152  1  0.50471024  0.00373802  0.81890720  1
  I  I153  1  0.47728120  0.04325136  0.16812498  1
  I  I154  1  0.47486965  0.50501058  0.83299317  1
  I  I155  1  0.48651425  0.50055594  0.18318556  1
  N  N156  1  0.25974180  0.32237704  0.85911138  1
  N  N157  1  0.22171322  0.14065084  0.43176792  1
  N  N158  1  0.27782131  0.31568971  0.14343055  1
  N  N159  1  0.32209813  0.74124862  0.85959257  1
  N  N160  1  0.14129152  0.77924056  0.43136483  1
  N  N161  1  0.32174817  0.72668965  0.14355307  1
  N  N162  1  0.67866935  0.23243718  0.14068925  1
  N  N163  1  0.85840408  0.27843753  0.56885595  1
  N  N164  1  0.68082355  0.21517670  0.85520842  1
  N  N165  1  0.77088416  0.67771041  0.14066510  1
  N  N166  1  0.72178665  0.85881108  0.56928343  1
  N  N167  1  0.78644241  0.68035072  0.85531764  1
