# generated using pymatgen
data_H23PbC11I4N3
_symmetry_space_group_name_H-M   'P 1'
_cell_length_a   12.44304828
_cell_length_b   12.40758380
_cell_length_c   18.36997682
_cell_angle_alpha   89.69144836
_cell_angle_beta   89.13236492
_cell_angle_gamma   89.90591401
_symmetry_Int_Tables_number   1
_chemical_formula_structural   H23PbC11I4N3
_chemical_formula_sum   'H92 Pb4 C44 I16 N12'
_cell_volume   2835.73725251
_cell_formula_units_Z   4
loop_
 _symmetry_equiv_pos_site_id
 _symmetry_equiv_pos_as_xyz
  1  'x, y, z'
loop_
 _atom_site_type_symbol
 _atom_site_label
 _atom_site_symmetry_multiplicity
 _atom_site_fract_x
 _atom_site_fract_y
 _atom_site_fract_z
 _atom_site_occupancy
  H  H0  1  0.16908294  0.38621113  0.85871759  1
  H  H1  1  0.27824509  0.33388239  0.90128050  1
  H  H2  1  0.17716193  0.25513548  0.87831211  1
  H  H3  1  0.33215271  0.23679865  0.79344887  1
  H  H4  1  0.32167691  0.37755406  0.77639212  1
  H  H5  1  0.13394088  0.35137676  0.73055158  1
  H  H6  1  0.14526687  0.21057967  0.74472258  1
  H  H7  1  0.29859404  0.20379212  0.65362741  1
  H  H8  1  0.29102566  0.34485237  0.64137541  1
  H  H9  1  0.10533203  0.18963263  0.61234884  1
  H  H10  1  0.10457941  0.32980866  0.59578345  1
  H  H11  1  0.23181160  0.39879629  0.47065715  1
  H  H12  1  0.35357151  0.37556624  0.34392607  1
  H  H13  1  0.39640922  0.24435594  0.32049495  1
  H  H14  1  0.21087906  0.20419283  0.27292179  1
  H  H15  1  0.17189724  0.33850034  0.29227510  1
  H  H16  1  0.31493556  0.40846405  0.20707566  1
  H  H17  1  0.35913426  0.27538785  0.18894103  1
  H  H18  1  0.24315467  0.34304428  0.09581940  1
  H  H19  1  0.18137402  0.24029134  0.13661900  1
  H  H20  1  0.14254802  0.36701698  0.15541112  1
  H  H21  1  0.29675986  0.06990992  0.39994545  1
  H  H22  1  0.20935668  0.06881245  0.52440217  1
  H  H23  1  0.38528098  0.82501221  0.85825946  1
  H  H24  1  0.33411949  0.71463391  0.90058484  1
  H  H25  1  0.25458105  0.81652368  0.87896511  1
  H  H26  1  0.23533876  0.66568442  0.79307218  1
  H  H27  1  0.37612558  0.67560305  0.77513174  1
  H  H28  1  0.35148319  0.86548385  0.72986729  1
  H  H29  1  0.21081955  0.85515001  0.74490478  1
  H  H30  1  0.20337934  0.70310338  0.65474570  1
  H  H31  1  0.34399754  0.71020010  0.64130367  1
  H  H32  1  0.19006124  0.89791185  0.61143393  1
  H  H33  1  0.33004501  0.89655578  0.59337366  1
  H  H34  1  0.39788023  0.76777671  0.47098363  1
  H  H35  1  0.37523629  0.64396788  0.34646982  1
  H  H36  1  0.24431009  0.60146428  0.32444107  1
  H  H37  1  0.20502355  0.78747620  0.27395006  1
  H  H38  1  0.33911805  0.82555383  0.29165781  1
  H  H39  1  0.40774939  0.67980452  0.20869863  1
  H  H40  1  0.27424408  0.63790110  0.19185425  1
  H  H41  1  0.34366111  0.75291895  0.09694603  1
  H  H42  1  0.24178564  0.81637775  0.13754821  1
  H  H43  1  0.36843117  0.85335014  0.15517509  1
  H  H44  1  0.07054734  0.70290601  0.40257308  1
  H  H45  1  0.06845380  0.79154288  0.52580111  1
  H  H46  1  0.62266194  0.31742736  0.13708230  1
  H  H47  1  0.67719486  0.20375415  0.09904463  1
  H  H48  1  0.75347881  0.30700942  0.12156597  1
  H  H49  1  0.76667686  0.15907247  0.20995703  1
  H  H50  1  0.62553175  0.17022206  0.22429716  1
  H  H51  1  0.64790840  0.35983070  0.26890095  1
  H  H52  1  0.78861892  0.35111658  0.25476007  1
  H  H53  1  0.79660346  0.19982092  0.34663940  1
  H  H54  1  0.65577711  0.20700425  0.35948292  1
  H  H55  1  0.80844429  0.39594115  0.38764455  1
  H  H56  1  0.66873678  0.39406142  0.40536208  1
  H  H57  1  0.60133418  0.26538403  0.52871172  1
  H  H58  1  0.62489118  0.14157390  0.65416085  1
  H  H59  1  0.75575016  0.09895130  0.67615153  1
  H  H60  1  0.79489334  0.28206333  0.72777340  1
  H  H61  1  0.66110678  0.32240541  0.70953796  1
  H  H62  1  0.59079551  0.17227090  0.78993329  1
  H  H63  1  0.72374085  0.12924340  0.80718008  1
  H  H64  1  0.65302719  0.23684421  0.90391271  1
  H  H65  1  0.75537695  0.30142141  0.86657057  1
  H  H66  1  0.63078073  0.34301328  0.84771636  1
  H  H67  1  0.92870222  0.20267690  0.59828706  1
  H  H68  1  0.93059867  0.29124413  0.47421641  1
  H  H69  1  0.68492320  0.61265342  0.13899988  1
  H  H70  1  0.79276604  0.67480455  0.09886448  1
  H  H71  1  0.68496654  0.74414676  0.12362310  1
  H  H72  1  0.83589325  0.76632452  0.20845749  1
  H  H73  1  0.82907487  0.62517299  0.22427630  1
  H  H74  1  0.63797006  0.64493556  0.27034954  1
  H  H75  1  0.64561456  0.78628662  0.25705755  1
  H  H76  1  0.79762124  0.79468662  0.34618858  1
  H  H77  1  0.79093890  0.65380280  0.35868178  1
  H  H78  1  0.60267775  0.80732183  0.39111806  1
  H  H79  1  0.60473878  0.66745600  0.40837494  1
  H  H80  1  0.73401530  0.60078689  0.52994732  1
  H  H81  1  0.85817446  0.62551776  0.65338250  1
  H  H82  1  0.89999471  0.75707788  0.67548174  1
  H  H83  1  0.71470146  0.79658433  0.72711960  1
  H  H84  1  0.67715869  0.66163317  0.70976747  1
  H  H85  1  0.82312481  0.59493933  0.79202001  1
  H  H86  1  0.86616810  0.72886779  0.80683664  1
  H  H87  1  0.75660034  0.67105665  0.90499349  1
  H  H88  1  0.68594010  0.76438797  0.86077671  1
  H  H89  1  0.65503327  0.63407181  0.85010496  1
  H  H90  1  0.79812813  0.93047447  0.59756772  1
  H  H91  1  0.70831385  0.93014286  0.47559073  1
  Pb  Pb92  1  -0.00093207  0.00395008  0.99676032  1
  Pb  Pb93  1  0.00574881  0.51451822  0.00266129  1
  Pb  Pb94  1  0.49776392  0.00472072  0.00147477  1
  Pb  Pb95  1  0.50481513  0.49963648  0.99494716  1
  C  C96  1  0.27527479  0.30408692  0.78814474  1
  C  C97  1  0.19151636  0.28374661  0.73051298  1
  C  C98  1  0.24274722  0.27284123  0.65484271  1
  C  C99  1  0.15698213  0.25817766  0.59620638  1
  C  C100  1  0.20220881  0.23998166  0.52156086  1
  C  C101  1  0.23701182  0.31140765  0.46770143  1
  C  C102  1  0.28288908  0.25021715  0.40928010  1
  C  C103  1  0.32559256  0.29188919  0.33776495  1
  C  C104  1  0.24110693  0.28722663  0.27742534  1
  C  C105  1  0.28898855  0.32407535  0.20503708  1
  C  C106  1  0.27439372  0.14259660  0.42908507  1
  C  C107  1  0.30301264  0.72208196  0.78757965  1
  C  C108  1  0.28354820  0.80851953  0.73036032  1
  C  C109  1  0.27228986  0.75878422  0.65496626  1
  C  C110  1  0.25790636  0.84519369  0.59535696  1
  C  C111  1  0.23931003  0.79915662  0.52165080  1
  C  C112  1  0.31076690  0.76284092  0.46833196  1
  C  C113  1  0.25008745  0.71612516  0.41116163  1
  C  C114  1  0.29182152  0.67232411  0.34027684  1
  C  C115  1  0.28762859  0.75639376  0.27849036  1
  C  C116  1  0.32394034  0.70725124  0.20678764  1
  C  C117  1  0.14267232  0.72559983  0.43119638  1
  C  C118  1  0.69929267  0.21627297  0.21299033  1
  C  C119  1  0.71647938  0.30357123  0.26930804  1
  C  C120  1  0.72749185  0.25538445  0.34546755  1
  C  C121  1  0.74109392  0.34278350  0.40382231  1
  C  C122  1  0.75976436  0.29706688  0.47790661  1
  C  C123  1  0.68845555  0.26038844  0.53135630  1
  C  C124  1  0.74937647  0.21466704  0.58918267  1
  C  C125  1  0.70811314  0.16997996  0.66017938  1
  C  C126  1  0.71198095  0.25232835  0.72251841  1
  C  C127  1  0.67441672  0.19957013  0.79310282  1
  C  C128  1  0.85671190  0.22487257  0.56926476  1
  C  C129  1  0.78083117  0.69738814  0.21298777  1
  C  C130  1  0.69350939  0.71411268  0.27050401  1
  C  C131  1  0.74216548  0.72553475  0.34590873  1
  C  C132  1  0.65595312  0.73977992  0.40608871  1
  C  C133  1  0.70257518  0.75899588  0.47934318  1
  C  C134  1  0.73945672  0.68821639  0.53219004  1
  C  C135  1  0.78600439  0.74995359  0.58909620  1
  C  C136  1  0.82963575  0.70909425  0.65976346  1
  C  C137  1  0.74596633  0.71379644  0.72229960  1
  C  C138  1  0.79624813  0.67921733  0.79348622  1
  C  C139  1  0.77615616  0.85744438  0.56917555  1
  I  I140  1  0.24479192  0.94321424  0.99786136  1
  I  I141  1  0.25972353  0.56643557  0.01210191  1
  I  I142  1  0.73869274  0.07889291  -0.00161184  1
  I  I143  1  0.75760938  0.44615044  0.99292182  1
  I  I144  1  0.04523195  0.25599185  -0.00013357  1
  I  I145  1  0.91125993  0.75157501  0.99604305  1
  I  I146  1  0.42563962  0.25580685  0.99322184  1
  I  I147  1  0.54570640  0.75124702  0.00867312  1
  I  I148  1  0.01247738  0.00410399  0.81950501  1
  I  I149  1  0.01300372  0.00147969  0.17023786  1
  I  I150  1  0.03901797  0.52273770  0.83035273  1
  I  I151  1  0.00234321  0.49475778  0.18136312  1
  I  I152  1  0.52956545  0.95017361  0.82947168  1
  I  I153  1  0.49759733  0.99330866  0.17832110  1
  I  I154  1  0.51629713  0.49932303  0.81634924  1
  I  I155  1  0.52561047  0.48974371  0.16646929  1
  N  N156  1  0.22273504  0.32028493  0.86091770  1
  N  N157  1  0.20995690  0.31716755  0.14473373  1
  N  N158  1  0.22577148  0.13783727  0.49675897  1
  N  N159  1  0.31954265  0.77148633  0.86061257  1
  N  N160  1  0.31810501  0.78665516  0.14561067  1
  N  N161  1  0.13751539  0.77571300  0.49774899  1
  N  N162  1  0.68704639  0.26338727  0.13833000  1
  N  N163  1  0.67880427  0.27471819  0.85634544  1
  N  N164  1  0.86176619  0.27467500  0.50217140  1
  N  N165  1  0.73367731  0.68102316  0.13951382  1
  N  N166  1  0.71867863  0.68807884  0.85630954  1
  N  N167  1  0.72578513  0.86146333  0.50303271  1
