# generated using pymatgen
data_H7PbC3I4N5
_symmetry_space_group_name_H-M   'P 1'
_cell_length_a   11.95885105
_cell_length_b   11.97167901
_cell_length_c   10.71496052
_cell_angle_alpha   93.65552361
_cell_angle_beta   93.36555658
_cell_angle_gamma   90.44969327
_symmetry_Int_Tables_number   1
_chemical_formula_structural   H7PbC3I4N5
_chemical_formula_sum   'H28 Pb4 C12 I16 N20'
_cell_volume   1528.16944350
_cell_formula_units_Z   4
loop_
 _symmetry_equiv_pos_site_id
 _symmetry_equiv_pos_as_xyz
  1  'x, y, z'
loop_
 _atom_site_type_symbol
 _atom_site_label
 _atom_site_symmetry_multiplicity
 _atom_site_fract_x
 _atom_site_fract_y
 _atom_site_fract_z
 _atom_site_occupancy
  H  H0  1  0.25696267  0.21372257  0.80666715  1
  H  H1  1  0.18472480  0.30766023  0.72390871  1
  H  H2  1  0.32332839  0.31179891  0.72918062  1
  H  H3  1  0.32845844  0.12156437  0.62214513  1
  H  H4  1  0.17922026  0.12158810  0.61202649  1
  H  H5  1  0.26349832  0.09459006  0.35335241  1
  H  H6  1  0.26115414  0.22149817  0.18914059  1
  H  H7  1  0.21361566  0.74374654  0.80681405  1
  H  H8  1  0.31254404  0.80713026  0.72842508  1
  H  H9  1  0.30604446  0.66821147  0.72340467  1
  H  H10  1  0.12210102  0.66404431  0.61104511  1
  H  H11  1  0.12080763  0.81332825  0.62362800  1
  H  H12  1  0.09482888  0.75607672  0.35425065  1
  H  H13  1  0.22219608  0.74806706  0.18926150  1
  H  H14  1  0.78774150  0.25645037  0.19315986  1
  H  H15  1  0.69482193  0.33149275  0.27649492  1
  H  H16  1  0.68883649  0.19265506  0.27117900  1
  H  H17  1  0.88014381  0.18673888  0.37670886  1
  H  H18  1  0.87871826  0.33606173  0.38916166  1
  H  H19  1  0.90521282  0.24440715  0.64635777  1
  H  H20  1  0.77701164  0.25258558  0.81063521  1
  H  H21  1  0.74363326  0.78629053  0.19313098  1
  H  H22  1  0.67701805  0.68834666  0.27027283  1
  H  H23  1  0.81564147  0.69218567  0.27605472  1
  H  H24  1  0.82116989  0.87811721  0.38806568  1
  H  H25  1  0.67193236  0.87846842  0.37756088  1
  H  H26  1  0.73565440  0.90515529  0.64649949  1
  H  H27  1  0.73769073  0.77813874  0.81058163  1
  Pb  Pb28  1  0.99909751  0.00027638  0.99995548  1
  Pb  Pb29  1  0.99821745  0.50205082  0.99969606  1
  Pb  Pb30  1  0.49919145  0.00028871  0.00142134  1
  Pb  Pb31  1  0.49760690  0.49830408  0.00242802  1
  C  C32  1  0.25431592  0.17612195  0.61250372  1
  C  C33  1  0.25592106  0.23808119  0.49598481  1
  C  C34  1  0.26134830  0.18441028  0.37618269  1
  C  C35  1  0.17581144  0.73978397  0.61277132  1
  C  C36  1  0.23799003  0.74287161  0.49596013  1
  C  C37  1  0.18427375  0.74845660  0.37630545  1
  C  C38  1  0.82510855  0.26027990  0.38734353  1
  C  C39  1  0.76258392  0.25728459  0.50393330  1
  C  C40  1  0.81585124  0.25202596  0.62385812  1
  C  C41  1  0.74591924  0.82376404  0.38734698  1
  C  C42  1  0.74390286  0.76175221  0.50381809  1
  C  C43  1  0.73816617  0.81535339  0.62363150  1
  I  I44  1  0.24881980  0.08957665  0.99534256  1
  I  I45  1  0.24578915  0.42668089  0.99453602  1
  I  I46  1  0.75052551  0.91038489  0.00472626  1
  I  I47  1  0.74970465  0.57222577  0.00553671  1
  I  I48  1  0.91145798  0.24952722  0.00702911  1
  I  I49  1  0.09142659  0.75226444  0.99293554  1
  I  I50  1  0.57334610  0.24904469  0.00816343  1
  I  I51  1  0.43065082  0.74954754  0.98971022  1
  I  I52  1  0.97860813  0.99812149  0.69450505  1
  I  I53  1  0.02092240  0.00165532  0.30531740  1
  I  I54  1  0.01273285  0.45781351  0.69484172  1
  I  I55  1  0.98642363  0.54388501  0.30413803  1
  I  I56  1  0.48428897  0.96891208  0.69794910  1
  I  I57  1  0.51513307  0.03173727  0.30390081  1
  I  I58  1  0.45066747  0.49853817  0.70129562  1
  I  I59  1  0.54884719  0.49899797  0.30196025  1
  N  N60  1  0.25498427  0.25639313  0.72464260  1
  N  N61  1  0.26083156  0.25305637  0.28252518  1
  N  N62  1  0.26097397  0.36557022  0.29753257  1
  N  N63  1  0.25622952  0.41160893  0.40969734  1
  N  N64  1  0.25103970  0.34988049  0.51027111  1
  N  N65  1  0.25626949  0.73995100  0.72426750  1
  N  N66  1  0.25347123  0.74655148  0.28238708  1
  N  N67  1  0.36566757  0.74332031  0.29662691  1
  N  N68  1  0.41180504  0.74564024  0.40921425  1
  N  N69  1  0.34971291  0.74407994  0.51038201  1
  N  N70  1  0.74491362  0.25995391  0.27557545  1
  N  N71  1  0.74621921  0.25397012  0.71740146  1
  N  N72  1  0.63405441  0.25732541  0.70254159  1
  N  N73  1  0.58836672  0.25456972  0.58976328  1
  N  N74  1  0.65088262  0.25572292  0.48892366  1
  N  N75  1  0.74538009  0.74356072  0.27513994  1
  N  N76  1  0.73848589  0.74665801  0.71722775  1
  N  N77  1  0.73903861  0.63413783  0.70224043  1
  N  N78  1  0.74366190  0.58815656  0.59004744  1
  N  N79  1  0.74846520  0.64993756  0.48945058  1
