# generated using pymatgen
data_H7PbC3I4N5
_symmetry_space_group_name_H-M   'P 1'
_cell_length_a   12.14050847
_cell_length_b   12.26881215
_cell_length_c   10.51540379
_cell_angle_alpha   89.05485401
_cell_angle_beta   84.09374730
_cell_angle_gamma   83.40390693
_symmetry_Int_Tables_number   1
_chemical_formula_structural   H7PbC3I4N5
_chemical_formula_sum   'H28 Pb4 C12 I16 N20'
_cell_volume   1547.62098152
_cell_formula_units_Z   4
loop_
 _symmetry_equiv_pos_site_id
 _symmetry_equiv_pos_as_xyz
  1  'x, y, z'
loop_
 _atom_site_type_symbol
 _atom_site_label
 _atom_site_symmetry_multiplicity
 _atom_site_fract_x
 _atom_site_fract_y
 _atom_site_fract_z
 _atom_site_occupancy
  H  H0  1  0.23450360  0.17139859  0.79377829  1
  H  H1  1  0.17600625  0.12095752  0.67334128  1
  H  H2  1  0.31706840  0.11398687  0.67107186  1
  H  H3  1  0.30943239  0.31447299  0.66278478  1
  H  H4  1  0.16317472  0.32674868  0.67103500  1
  H  H5  1  0.23974249  0.44899296  0.45513654  1
  H  H6  1  0.25250269  0.10998632  0.25655149  1
  H  H7  1  0.16593979  0.72955218  0.79385459  1
  H  H8  1  0.11689001  0.80922984  0.67700427  1
  H  H9  1  0.12019894  0.67046823  0.67031155  1
  H  H10  1  0.32727626  0.65434525  0.65893649  1
  H  H11  1  0.31817848  0.79927608  0.65740414  1
  H  H12  1  0.44642032  0.77050841  0.43718699  1
  H  H13  1  0.11521352  0.72416103  0.26859380  1
  H  H14  1  0.83458266  0.26904787  0.20576682  1
  H  H15  1  0.88159984  0.32842571  0.32844074  1
  H  H16  1  0.88553565  0.18930149  0.32126608  1
  H  H17  1  0.68418350  0.19852470  0.34329992  1
  H  H18  1  0.67430431  0.34314698  0.34286392  1
  H  H19  1  0.55544444  0.22828142  0.56200925  1
  H  H20  1  0.88500101  0.27615913  0.73433020  1
  H  H21  1  0.76461591  0.82677232  0.20488054  1
  H  H22  1  0.68136157  0.88689188  0.32532244  1
  H  H23  1  0.82280305  0.87986117  0.32375689  1
  H  H24  1  0.83511945  0.67379104  0.32975658  1
  H  H25  1  0.68888000  0.68665055  0.34002195  1
  H  H26  1  0.75932484  0.55315097  0.54566229  1
  H  H27  1  0.75224488  0.89106010  0.74559425  1
  Pb  Pb28  1  0.00128495  0.99637808  0.99925331  1
  Pb  Pb29  1  0.99186955  0.50100344  0.00380254  1
  Pb  Pb30  1  0.49025726  0.97797394  0.99008282  1
  Pb  Pb31  1  0.49923624  0.48896673  0.99052597  1
  C  C32  1  0.23935106  0.27448328  0.63335758  1
  C  C33  1  0.24529150  0.27082258  0.49107333  1
  C  C34  1  0.25171308  0.36668321  0.41509622  1
  C  C35  1  0.27822471  0.72913981  0.62709283  1
  C  C36  1  0.27605911  0.72960254  0.48498171  1
  C  C37  1  0.37465826  0.74325531  0.39755037  1
  C  C38  1  0.72432649  0.26853229  0.37363625  1
  C  C39  1  0.72674619  0.26730716  0.51545060  1
  C  C40  1  0.62804009  0.25367273  0.60152083  1
  C  C41  1  0.75950454  0.72687404  0.36756240  1
  C  C42  1  0.75527127  0.73119743  0.50980871  1
  C  C43  1  0.74878778  0.63539647  0.58575404  1
  I  I44  1  0.23909638  0.08192294  0.01179498  1
  I  I45  1  0.26451094  0.44260844  0.91717093  1
  I  I46  1  0.75656328  0.93548389  0.98499660  1
  I  I47  1  0.73707909  0.56895814  0.07726042  1
  I  I48  1  0.92845187  0.25784450  0.98042098  1
  I  I49  1  0.07295465  0.74048791  0.01957075  1
  I  I50  1  0.55037064  0.26384087  0.10405322  1
  I  I51  1  0.44048900  0.74586146  0.92122692  1
  I  I52  1  0.02403270  0.99952705  0.68827215  1
  I  I53  1  0.97740764  0.99848605  0.30981657  1
  I  I54  1  0.99086255  0.51901295  0.69277495  1
  I  I55  1  0.00593301  0.48150357  0.31034352  1
  I  I56  1  0.48535537  0.99065150  0.68379408  1
  I  I57  1  0.51499612  0.00943077  0.30936454  1
  I  I58  1  0.54320891  0.43572033  0.66862739  1
  I  I59  1  0.45737718  0.56748226  0.32451062  1
  N  N60  1  0.24134276  0.16491615  0.69423171  1
  N  N61  1  0.28641200  0.35786346  0.29008025  1
  N  N62  1  0.29076907  0.26271169  0.23405381  1
  N  N63  1  0.25864729  0.18010723  0.30764762  1
  N  N64  1  0.24584955  0.17496753  0.43390357  1
  N  N65  1  0.16430605  0.73424429  0.69475678  1
  N  N66  1  0.34838682  0.80459340  0.28636502  1
  N  N67  1  0.25756229  0.79171797  0.24151857  1
  N  N68  1  0.18697702  0.73013986  0.31031158  1
  N  N69  1  0.18229857  0.71897931  0.43788309  1
  N  N70  1  0.83754240  0.26423100  0.30469604  1
  N  N71  1  0.65115715  0.19680664  0.71527739  1
  N  N72  1  0.74185713  0.21014237  0.76120857  1
  N  N73  1  0.81440502  0.26797244  0.69088208  1
  N  N74  1  0.82018670  0.27842210  0.56349593  1
  N  N75  1  0.75746425  0.83544509  0.30394668  1
  N  N76  1  0.71433414  0.64451243  0.71120774  1
  N  N77  1  0.71139447  0.73925252  0.76703148  1
  N  N78  1  0.74480511  0.82141435  0.69356676  1
  N  N79  1  0.75709627  0.82664358  0.56742402  1
