# generated using pymatgen
data_H7PbC3I4N5
_symmetry_space_group_name_H-M   'P 1'
_cell_length_a   12.20837098
_cell_length_b   12.22337648
_cell_length_c   10.69854693
_cell_angle_alpha   92.29168310
_cell_angle_beta   92.29015040
_cell_angle_gamma   91.31893813
_symmetry_Int_Tables_number   1
_chemical_formula_structural   H7PbC3I4N5
_chemical_formula_sum   'H28 Pb4 C12 I16 N20'
_cell_volume   1593.48200219
_cell_formula_units_Z   4
loop_
 _symmetry_equiv_pos_site_id
 _symmetry_equiv_pos_as_xyz
  1  'x, y, z'
loop_
 _atom_site_type_symbol
 _atom_site_label
 _atom_site_symmetry_multiplicity
 _atom_site_fract_x
 _atom_site_fract_y
 _atom_site_fract_z
 _atom_site_occupancy
  H  H0  1  0.25016847  0.17601868  0.80627068  1
  H  H1  1  0.31963417  0.27122574  0.72915232  1
  H  H2  1  0.18506346  0.27160043  0.72517607  1
  H  H3  1  0.17255189  0.09128305  0.61270214  1
  H  H4  1  0.31913393  0.08900637  0.62044946  1
  H  H5  1  0.26208253  0.45234441  0.39121160  1
  H  H6  1  0.26307359  0.15846853  0.20211773  1
  H  H7  1  0.16879119  0.74032676  0.80980011  1
  H  H8  1  0.25523623  0.66212948  0.73106548  1
  H  H9  1  0.27326637  0.79582695  0.73392094  1
  H  H10  1  0.08707211  0.81300636  0.62698613  1
  H  H11  1  0.08329119  0.66719412  0.61040292  1
  H  H12  1  0.45102159  0.76123444  0.40005713  1
  H  H13  1  0.15919357  0.75939490  0.20605383  1
  H  H14  1  0.83056746  0.25731267  0.18995106  1
  H  H15  1  0.72736645  0.19988455  0.26606666  1
  H  H16  1  0.74267326  0.33364643  0.26956046  1
  H  H17  1  0.91599056  0.33127145  0.38855569  1
  H  H18  1  0.91351446  0.18539563  0.37307615  1
  H  H19  1  0.54928266  0.24096636  0.60057155  1
  H  H20  1  0.84119884  0.23823637  0.79377279  1
  H  H21  1  0.74978142  0.82893896  0.19502436  1
  H  H22  1  0.81597238  0.73322319  0.27476829  1
  H  H23  1  0.68130667  0.73225178  0.27077651  1
  H  H24  1  0.68038152  0.91351807  0.38146061  1
  H  H25  1  0.82711559  0.91189517  0.38967312  1
  H  H26  1  0.73610059  0.54940324  0.60860623  1
  H  H27  1  0.73882407  0.84267849  0.79951503  1
  Pb  Pb28  1  0.00137935  0.99647224  0.99980797  1
  Pb  Pb29  1  0.00027650  0.49604391  0.99861212  1
  Pb  Pb30  1  0.49614678  0.99332698  0.99559468  1
  Pb  Pb31  1  0.50490468  0.49454395  0.00415098  1
  C  C32  1  0.24786977  0.14360429  0.61185081  1
  C  C33  1  0.25220086  0.20509982  0.49522782  1
  C  C34  1  0.25848768  0.36357981  0.39303600  1
  C  C35  1  0.13894948  0.74028057  0.61488844  1
  C  C36  1  0.20214327  0.74763929  0.49946246  1
  C  C37  1  0.36228597  0.75615482  0.40038280  1
  C  C38  1  0.86101769  0.25763505  0.38482971  1
  C  C39  1  0.79805953  0.25074590  0.50048185  1
  C  C40  1  0.63802197  0.24479049  0.59999389  1
  C  C41  1  0.75196609  0.85935619  0.38982218  1
  C  C42  1  0.74778002  0.79708216  0.50600683  1
  C  C43  1  0.74077475  0.63815854  0.60726191  1
  I  I44  1  0.25005371  0.07494684  0.99589782  1
  I  I45  1  0.24519426  0.44349852  0.93453140  1
  I  I46  1  0.74851640  0.93278478  0.00467151  1
  I  I47  1  0.75522225  0.56906832  0.05454893  1
  I  I48  1  0.93134394  0.24503840  0.99778708  1
  I  I49  1  0.06790590  0.74965648  0.00227077  1
  I  I50  1  0.56845994  0.25032796  0.05094333  1
  I  I51  1  0.42891089  0.74608391  0.95146028  1
  I  I52  1  0.99018690  0.99609585  0.70169921  1
  I  I53  1  0.01203403  0.00174089  0.29796547  1
  I  I54  1  0.96930575  0.49739295  0.69727662  1
  I  I55  1  0.02675379  0.50131331  0.29972466  1
  I  I56  1  0.50286297  0.00172515  0.69611274  1
  I  I57  1  0.49623213  0.99641388  0.29656570  1
  I  I58  1  0.50624147  0.46442396  0.69889871  1
  I  I59  1  0.49597209  0.53324957  0.30644258  1
  N  N60  1  0.25073532  0.21992373  0.72363840  1
  N  N61  1  0.25364411  0.31477961  0.50287341  1
  N  N62  1  0.26204232  0.30928489  0.28093077  1
  N  N63  1  0.26104681  0.20286251  0.28821340  1
  N  N64  1  0.25626169  0.14337263  0.38809572  1
  N  N65  1  0.21336328  0.73445797  0.72776162  1
  N  N66  1  0.31192921  0.75049348  0.50919898  1
  N  N67  1  0.30913010  0.75908125  0.28712235  1
  N  N68  1  0.20280603  0.75780276  0.29257868  1
  N  N69  1  0.14167409  0.75243778  0.39177586  1
  N  N70  1  0.78614787  0.26229993  0.27216935  1
  N  N71  1  0.68829603  0.24890993  0.49096651  1
  N  N72  1  0.69134093  0.24164493  0.71317881  1
  N  N73  1  0.79754617  0.24077223  0.70736288  1
  N  N74  1  0.85862657  0.24527335  0.60800117  1
  N  N75  1  0.74971352  0.78412609  0.27702311  1
  N  N76  1  0.74556479  0.68745335  0.49763535  1
  N  N77  1  0.73825387  0.69202697  0.71971364  1
  N  N78  1  0.74017836  0.79851146  0.71321069  1
  N  N79  1  0.74470475  0.85840492  0.61359706  1
