# generated using pymatgen
data_H7PbC3I4N5
_symmetry_space_group_name_H-M   'P 1'
_cell_length_a   12.05809717
_cell_length_b   12.07135465
_cell_length_c   10.74355418
_cell_angle_alpha   91.96985108
_cell_angle_beta   91.28079960
_cell_angle_gamma   90.68408579
_symmetry_Int_Tables_number   1
_chemical_formula_structural   H7PbC3I4N5
_chemical_formula_sum   'H28 Pb4 C12 I16 N20'
_cell_volume   1562.36463233
_cell_formula_units_Z   4
loop_
 _symmetry_equiv_pos_site_id
 _symmetry_equiv_pos_as_xyz
  1  'x, y, z'
loop_
 _atom_site_type_symbol
 _atom_site_label
 _atom_site_symmetry_multiplicity
 _atom_site_fract_x
 _atom_site_fract_y
 _atom_site_fract_z
 _atom_site_occupancy
  H  H0  1  0.25085474  0.19559718  0.80537331  1
  H  H1  1  0.31863767  0.29381292  0.72719315  1
  H  H2  1  0.18188993  0.29205639  0.72611097  1
  H  H3  1  0.17419685  0.11126007  0.61433046  1
  H  H4  1  0.32250724  0.11105273  0.61834505  1
  H  H5  1  0.25216573  0.38737942  0.20836747  1
  H  H6  1  0.25602397  0.18910616  0.20292703  1
  H  H7  1  0.19438292  0.74814460  0.80753132  1
  H  H8  1  0.28916676  0.67650566  0.72678160  1
  H  H9  1  0.29432093  0.81272517  0.72842506  1
  H  H10  1  0.10966610  0.81902064  0.62314007  1
  H  H11  1  0.10978251  0.67101819  0.61567139  1
  H  H12  1  0.38694160  0.74798676  0.20822096  1
  H  H13  1  0.18872935  0.75365971  0.20510565  1
  H  H14  1  0.80576124  0.25139303  0.19239099  1
  H  H15  1  0.70587560  0.18690761  0.27175669  1
  H  H16  1  0.71093421  0.32311791  0.27292785  1
  H  H17  1  0.89010232  0.32921281  0.38418039  1
  H  H18  1  0.89077051  0.18121960  0.37690927  1
  H  H19  1  0.61328988  0.25198131  0.79175191  1
  H  H20  1  0.81149157  0.24596238  0.79482307  1
  H  H21  1  0.74946377  0.80464889  0.19499884  1
  H  H22  1  0.81843493  0.70815677  0.27422793  1
  H  H23  1  0.68168833  0.70642055  0.27312432  1
  H  H24  1  0.67774180  0.88904391  0.38207412  1
  H  H25  1  0.82605774  0.88893339  0.38616244  1
  H  H26  1  0.74709016  0.61225407  0.79160598  1
  H  H27  1  0.74439259  0.81053807  0.79742341  1
  Pb  Pb28  1  0.00124507  0.99959415  0.00032493  1
  Pb  Pb29  1  0.99811565  0.49993515  0.99924716  1
  Pb  Pb30  1  0.50137952  0.00027582  0.99971595  1
  Pb  Pb31  1  0.49851289  0.50003078  0.99958818  1
  C  C32  1  0.24906372  0.16486028  0.61166822  1
  C  C33  1  0.25092643  0.22873984  0.49516495  1
  C  C34  1  0.25259003  0.34331714  0.29562671  1
  C  C35  1  0.16354050  0.74566874  0.61400887  1
  C  C36  1  0.22750580  0.74831876  0.49655393  1
  C  C37  1  0.34257722  0.74953568  0.29586562  1
  C  C38  1  0.83661914  0.25435865  0.38593101  1
  C  C39  1  0.77265397  0.25160592  0.50338135  1
  C  C40  1  0.65762353  0.25031101  0.70408634  1
  C  C41  1  0.75123725  0.83527928  0.38873952  1
  C  C42  1  0.74927867  0.77127664  0.50513571  1
  C  C43  1  0.74704563  0.65642402  0.70441718  1
  I  I44  1  0.25082174  0.08643959  -0.00019937  1
  I  I45  1  0.24656353  0.43639049  0.96182896  1
  I  I46  1  0.75098345  0.91335251  1.00026748  1
  I  I47  1  0.75063285  0.56420430  0.03809358  1
  I  I48  1  0.91404295  0.24788484  0.99772412  1
  I  I49  1  0.08596257  0.75124966  0.00207624  1
  I  I50  1  0.56322241  0.25241329  0.04026504  1
  I  I51  1  0.43668347  0.74863073  0.95993909  1
  I  I52  1  0.98871382  0.99799926  0.70301099  1
  I  I53  1  0.01216480  0.00202496  0.29769311  1
  I  I54  1  0.99095771  0.48568140  0.69954322  1
  I  I55  1  0.00798581  0.51413581  0.29821835  1
  I  I56  1  0.49897144  0.99532843  0.70181469  1
  I  I57  1  0.50226657  0.00479226  0.29753449  1
  I  I58  1  0.49246350  0.48168763  0.69936806  1
  I  I59  1  0.50598951  0.51839802  0.30064699  1
  N  N60  1  0.25012338  0.24093358  0.72371765  1
  N  N61  1  0.25128579  0.34115668  0.50767245  1
  N  N62  1  0.25171109  0.40007180  0.40550990  1
  N  N63  1  0.25448052  0.23277442  0.28897309  1
  N  N64  1  0.25332142  0.16921057  0.38832813  1
  N  N65  1  0.23971287  0.74581727  0.72510265  1
  N  N66  1  0.34012210  0.75187495  0.50812787  1
  N  N67  1  0.39926067  0.75152022  0.40564594  1
  N  N68  1  0.23218087  0.75170273  0.29042468  1
  N  N69  1  0.16821262  0.75037982  0.39076165  1
  N  N70  1  0.76043858  0.25386582  0.27483071  1
  N  N71  1  0.66005263  0.24842057  0.49184703  1
  N  N72  1  0.60092116  0.24859141  0.59435404  1
  N  N73  1  0.76803411  0.24805056  0.70951089  1
  N  N74  1  0.83197322  0.24924785  0.60915709  1
  N  N75  1  0.75019434  0.75928272  0.27662737  1
  N  N76  1  0.74817206  0.65887849  0.49240497  1
  N  N77  1  0.74757808  0.59980065  0.59445406  1
  N  N78  1  0.74571618  0.76697046  0.71131445  1
  N  N79  1  0.74730703  0.83068764  0.61207381  1
