# generated using pymatgen
data_H18PbC20(I2N)2
_symmetry_space_group_name_H-M   'P 1'
_cell_length_a   12.53974432
_cell_length_b   12.52438971
_cell_length_c   18.99378554
_cell_angle_alpha   90.69202142
_cell_angle_beta   90.79714454
_cell_angle_gamma   89.75202150
_symmetry_Int_Tables_number   1
_chemical_formula_structural   H18PbC20(I2N)2
_chemical_formula_sum   'H72 Pb4 C80 I16 N8'
_cell_volume   2982.49217749
_cell_formula_units_Z   4
loop_
 _symmetry_equiv_pos_site_id
 _symmetry_equiv_pos_as_xyz
  1  'x, y, z'
loop_
 _atom_site_type_symbol
 _atom_site_label
 _atom_site_symmetry_multiplicity
 _atom_site_fract_x
 _atom_site_fract_y
 _atom_site_fract_z
 _atom_site_occupancy
  H  H0  1  0.18813743  0.20275103  0.90155423  1
  H  H1  1  0.31880941  0.17167984  0.89749080  1
  H  H2  1  0.27942742  0.29859428  0.89676838  1
  H  H3  1  0.29542721  0.05122232  0.79645776  1
  H  H4  1  0.29822261  0.04472734  0.66745529  1
  H  H5  1  0.23670997  0.03546118  0.56498678  1
  H  H6  1  0.24090773  0.03070414  0.43775157  1
  H  H7  1  0.27713239  0.47386189  0.45582870  1
  H  H8  1  0.27601368  0.47616902  0.32542602  1
  H  H9  1  0.26969923  0.38378103  0.21256300  1
  H  H10  1  0.27007669  0.14004121  0.10230111  1
  H  H11  1  0.18852895  0.24475010  0.10204129  1
  H  H12  1  0.32192340  0.26153410  0.10449171  1
  H  H13  1  0.25041284  0.04024535  0.20231987  1
  H  H14  1  0.24663968  0.03170317  0.33097543  1
  H  H15  1  0.27357895  0.37790676  0.56422186  1
  H  H16  1  0.20398134  0.37724695  0.66225986  1
  H  H17  1  0.21003131  0.38504343  0.79171428  1
  H  H18  1  0.20076492  0.81584759  0.90059769  1
  H  H19  1  0.17162160  0.68513384  0.89733059  1
  H  H20  1  0.29751181  0.72382062  0.89665975  1
  H  H21  1  0.05202426  0.70298207  0.79563585  1
  H  H22  1  0.04496622  0.70078741  0.66642491  1
  H  H23  1  0.03497534  0.76295502  0.56497606  1
  H  H24  1  0.03035235  0.75887029  0.43767115  1
  H  H25  1  0.47329909  0.72316362  0.45583128  1
  H  H26  1  0.47558159  0.72457350  0.32526968  1
  H  H27  1  0.38328932  0.73037090  0.21262496  1
  H  H28  1  0.14075796  0.72586759  0.10158430  1
  H  H29  1  0.24294006  0.80956601  0.10243070  1
  H  H30  1  0.26421293  0.67673190  0.10487002  1
  H  H31  1  0.04009978  0.75010066  0.20215746  1
  H  H32  1  0.03153028  0.75413804  0.33086536  1
  H  H33  1  0.37739062  0.72659714  0.56405748  1
  H  H34  1  0.37608492  0.79618343  0.66284009  1
  H  H35  1  0.38425792  0.79092798  0.79217877  1
  H  H36  1  0.79430252  0.32227110  0.10082410  1
  H  H37  1  0.83091867  0.19299039  0.10051682  1
  H  H38  1  0.70268411  0.22680118  0.10234442  1
  H  H39  1  0.94802907  0.20394939  0.20326316  1
  H  H40  1  0.95458246  0.19804689  0.33239775  1
  H  H41  1  0.96418900  0.26090825  0.43507657  1
  H  H42  1  0.96907493  0.25694079  0.56238368  1
  H  H43  1  0.52644092  0.22094428  0.54399222  1
  H  H44  1  0.52420722  0.22347560  0.67446079  1
  H  H45  1  0.61645203  0.23309631  0.78739291  1
  H  H46  1  0.85841690  0.23272400  0.89841610  1
  H  H47  1  0.75922562  0.32080570  0.89668980  1
  H  H48  1  0.73359775  0.18905942  0.89628175  1
  H  H49  1  0.95959835  0.25144175  0.79782416  1
  H  H50  1  0.96822699  0.25099514  0.66922288  1
  H  H51  1  0.62217045  0.22399620  0.43569878  1
  H  H52  1  0.62306517  0.29454700  0.33800058  1
  H  H53  1  0.61546717  0.29293490  0.20861901  1
  H  H54  1  0.67607423  0.79840309  0.10083103  1
  H  H55  1  0.80527870  0.83255712  0.10139854  1
  H  H56  1  0.77129635  0.70480059  0.10231434  1
  H  H57  1  0.79552424  0.94880433  0.20394222  1
  H  H58  1  0.80146229  0.95508994  0.33321146  1
  H  H59  1  0.73874523  0.96505100  0.43472492  1
  H  H60  1  0.74290580  0.96964339  0.56204115  1
  H  H61  1  0.77972982  0.52624951  0.54433888  1
  H  H62  1  0.77749184  0.52381848  0.67481584  1
  H  H63  1  0.76860548  0.61617642  0.78747987  1
  H  H64  1  0.76997800  0.85836332  0.89845283  1
  H  H65  1  0.68251328  0.75937742  0.89578249  1
  H  H66  1  0.81422806  0.73303482  0.89639817  1
  H  H67  1  0.74874569  0.95974754  0.79745032  1
  H  H68  1  0.74833929  0.96856595  0.66871220  1
  H  H69  1  0.77603599  0.62231344  0.43600441  1
  H  H70  1  0.70567541  0.62375436  0.33731405  1
  H  H71  1  0.70711887  0.61639449  0.20804252  1
  Pb  Pb72  1  0.00666442  0.99619689  0.99141336  1
  Pb  Pb73  1  0.99722832  0.49537993  0.00588522  1
  Pb  Pb74  1  0.50516068  0.99773802  0.00548923  1
  Pb  Pb75  1  0.49834142  0.49993812  0.99868259  1
  C  C76  1  0.25486060  0.21869316  0.80077529  1
  C  C77  1  0.27600811  0.12247006  0.76661790  1
  C  C78  1  0.27643681  0.11953259  0.69340684  1
  C  C79  1  0.25220357  0.21088144  0.65376341  1
  C  C80  1  0.25399580  0.20796348  0.57569493  1
  C  C81  1  0.24581960  0.11044576  0.53719183  1
  C  C82  1  0.24727951  0.10797250  0.46441941  1
  C  C83  1  0.25553610  0.20241788  0.42472681  1
  C  C84  1  0.26358188  0.30116713  0.46282012  1
  C  C85  1  0.27125751  0.39957528  0.42541980  1
  C  C86  1  0.27043051  0.40113058  0.35365375  1
  C  C87  1  0.26308722  0.30405191  0.31331601  1
  C  C88  1  0.26364843  0.30718261  0.23894342  1
  C  C89  1  0.25883436  0.21282198  0.20119844  1
  C  C90  1  0.25329301  0.11336627  0.23377860  1
  C  C91  1  0.25130361  0.10962794  0.30645899  1
  C  C92  1  0.25615876  0.20362619  0.34822201  1
  C  C93  1  0.26388436  0.30124834  0.53713078  1
  C  C94  1  0.22641149  0.30551878  0.69078996  1
  C  C95  1  0.22900112  0.31069482  0.76405843  1
  C  C96  1  0.21855659  0.74535655  0.80041538  1
  C  C97  1  0.12269850  0.72309579  0.76599690  1
  C  C98  1  0.11953900  0.72275922  0.69278270  1
  C  C99  1  0.21035054  0.74765987  0.65363943  1
  C  C100  1  0.20745087  0.74601540  0.57558134  1
  C  C101  1  0.10996518  0.75412877  0.53712102  1
  C  C102  1  0.10758577  0.75268378  0.46433257  1
  C  C103  1  0.20201022  0.74451510  0.42465666  1
  C  C104  1  0.30072115  0.73644563  0.46273527  1
  C  C105  1  0.39910238  0.72888618  0.42535070  1
  C  C106  1  0.40065643  0.72990764  0.35361363  1
  C  C107  1  0.30361450  0.73732860  0.31332349  1
  C  C108  1  0.30674493  0.73656074  0.23897201  1
  C  C109  1  0.21248572  0.74083145  0.20113217  1
  C  C110  1  0.11312258  0.74712330  0.23365861  1
  C  C111  1  0.10935934  0.74930155  0.30635501  1
  C  C112  1  0.20325115  0.74410822  0.34818672  1
  C  C113  1  0.30072509  0.73615693  0.53700720  1
  C  C114  1  0.30477898  0.77365590  0.69103778  1
  C  C115  1  0.31009558  0.77139593  0.76423712  1
  C  C116  1  0.78117335  0.24656516  0.19928216  1
  C  C117  1  0.87698634  0.22291775  0.23327387  1
  C  C118  1  0.87989687  0.22055594  0.30650098  1
  C  C119  1  0.78892375  0.24498764  0.34623562  1
  C  C120  1  0.79197147  0.24295055  0.42430554  1
  C  C121  1  0.88939205  0.25149263  0.46286550  1
  C  C122  1  0.89192062  0.25017505  0.53564869  1
  C  C123  1  0.79765499  0.24170198  0.57528450  1
  C  C124  1  0.69899553  0.23355967  0.53713123  1
  C  C125  1  0.60068879  0.22643371  0.57446650  1
  C  C126  1  0.59918485  0.22797466  0.64624001  1
  C  C127  1  0.69617019  0.23558610  0.68663251  1
  C  C128  1  0.69300821  0.23716509  0.76101459  1
  C  C129  1  0.78719157  0.24318125  0.79886792  1
  C  C130  1  0.88658336  0.24731986  0.76635057  1
  C  C131  1  0.89036235  0.24703557  0.69364752  1
  C  C132  1  0.79649803  0.24165856  0.65179171  1
  C  C133  1  0.69884669  0.23312195  0.46282347  1
  C  C134  1  0.69444330  0.27191983  0.30937103  1
  C  C135  1  0.68939653  0.27169237  0.23615098  1
  C  C136  1  0.75321525  0.78208802  0.19940077  1
  C  C137  1  0.77692264  0.87775984  0.23371919  1
  C  C138  1  0.77923633  0.88051122  0.30695067  1
  C  C139  1  0.75482262  0.78952040  0.34626303  1
  C  C140  1  0.75679350  0.79246818  0.42431378  1
  C  C141  1  0.74831711  0.89002954  0.46265893  1
  C  C142  1  0.74987049  0.89241937  0.53543940  1
  C  C143  1  0.75856974  0.79788842  0.57520988  1
  C  C144  1  0.76667903  0.69908044  0.53724746  1
  C  C145  1  0.77410380  0.60054226  0.57471983  1
  C  C146  1  0.77276846  0.59894805  0.64645118  1
  C  C147  1  0.76513255  0.69608070  0.68663726  1
  C  C148  1  0.76395183  0.69287671  0.76095257  1
  C  C149  1  0.75821600  0.78719750  0.79864500  1
  C  C150  1  0.75323761  0.88673862  0.76600103  1
  C  C151  1  0.75291590  0.89062301  0.69332246  1
  C  C152  1  0.75874415  0.79662147  0.65166076  1
  C  C153  1  0.76679117  0.69908263  0.46297826  1
  C  C154  1  0.72825569  0.69509838  0.30903361  1
  C  C155  1  0.72850323  0.69018996  0.23580743  1
  I  I156  1  0.25687966  0.95847246  0.00797344  1
  I  I157  1  0.24776272  0.51498553  0.99190935  1
  I  I158  1  0.75740900  0.02412194  0.99496462  1
  I  I159  1  0.74939361  0.45939837  0.00338275  1
  I  I160  1  0.03978134  0.24452481  0.99616254  1
  I  I161  1  0.97485161  0.74547177  0.00273704  1
  I  I162  1  0.48618629  0.24783940  0.01489302  1
  I  I163  1  0.54129638  0.74805635  0.98846726  1
  I  I164  1  0.02337722  0.99167065  0.82881733  1
  I  I165  1  0.01326707  0.99340930  0.15651668  1
  I  I166  1  0.98335766  0.49496906  0.83877266  1
  I  I167  1  0.99547593  0.48800496  0.16984615  1
  I  I168  1  0.51282490  0.00920483  0.83876966  1
  I  I169  1  0.51619815  0.98526869  0.16912829  1
  I  I170  1  0.49751187  0.48945693  0.83354794  1
  I  I171  1  0.48526487  0.50842675  0.16800779  1
  N  N172  1  0.26035522  0.22285433  0.87842327  1
  N  N173  1  0.25960126  0.21586179  0.12359034  1
  N  N174  1  0.22217051  0.74280255  0.87797894  1
  N  N175  1  0.21599801  0.73804737  0.12355373  1
  N  N176  1  0.77746223  0.24718832  0.12174879  1
  N  N177  1  0.78370157  0.24676047  0.87644136  1
  N  N178  1  0.75111799  0.77933809  0.12179415  1
  N  N179  1  0.75627857  0.78361244  0.87600796  1
