# generated using pymatgen
data_H20PbC22(I2N)2
_symmetry_space_group_name_H-M   'P 1'
_cell_length_a   12.51293972
_cell_length_b   12.51297232
_cell_length_c   21.43940723
_cell_angle_alpha   89.62014675
_cell_angle_beta   89.62023998
_cell_angle_gamma   90.10570731
_symmetry_Int_Tables_number   1
_chemical_formula_structural   H20PbC22(I2N)2
_chemical_formula_sum   'H80 Pb4 C88 I16 N8'
_cell_volume   3356.70171970
_cell_formula_units_Z   4
loop_
 _symmetry_equiv_pos_site_id
 _symmetry_equiv_pos_as_xyz
  1  'x, y, z'
loop_
 _atom_site_type_symbol
 _atom_site_label
 _atom_site_symmetry_multiplicity
 _atom_site_fract_x
 _atom_site_fract_y
 _atom_site_fract_z
 _atom_site_occupancy
  H  H0  1  0.31867065  0.27777377  0.90335536  1
  H  H1  1  0.18843249  0.29771352  0.90624449  1
  H  H2  1  0.23625041  0.17302974  0.90344849  1
  H  H3  1  0.18801102  0.42020052  0.81785485  1
  H  H4  1  0.18395962  0.43413576  0.70382386  1
  H  H5  1  0.24839630  0.45636040  0.61567120  1
  H  H6  1  0.24555530  0.47243435  0.50189427  1
  H  H7  1  0.24131497  0.38774960  0.39806382  1
  H  H8  1  0.30551529  0.38912377  0.30908239  1
  H  H9  1  0.30124898  0.40499284  0.19479740  1
  H  H10  1  0.31762888  0.22299739  0.09530876  1
  H  H11  1  0.18723385  0.20311904  0.09447486  1
  H  H12  1  0.23562988  0.32778395  0.09679514  1
  H  H13  1  0.19030274  0.07947271  0.18229681  1
  H  H14  1  0.18684750  0.06498436  0.29632211  1
  H  H15  1  0.24813822  0.04331299  0.38426205  1
  H  H16  1  0.24387522  0.02734020  0.49799109  1
  H  H17  1  0.23874436  0.11202153  0.60183913  1
  H  H18  1  0.30481855  0.11124267  0.69041553  1
  H  H19  1  0.30116017  0.09577443  0.80476991  1
  H  H20  1  0.27817278  0.68236282  0.90428557  1
  H  H21  1  0.29733050  0.81283926  0.90543854  1
  H  H22  1  0.17290407  0.76382968  0.90322993  1
  H  H23  1  0.42045719  0.81136127  0.81744591  1
  H  H24  1  0.43457866  0.81540102  0.70337556  1
  H  H25  1  0.45659518  0.75142540  0.61564237  1
  H  H26  1  0.47260365  0.75460249  0.50187066  1
  H  H27  1  0.38795915  0.75922005  0.39805357  1
  H  H28  1  0.38912912  0.69514892  0.30946046  1
  H  H29  1  0.40483986  0.69928694  0.19516744  1
  H  H30  1  0.22340807  0.68133201  0.09623572  1
  H  H31  1  0.20274017  0.81148436  0.09366002  1
  H  H32  1  0.32765986  0.76428883  0.09656834  1
  H  H33  1  0.07972033  0.81031870  0.18189353  1
  H  H34  1  0.06541033  0.81381281  0.29588656  1
  H  H35  1  0.04353709  0.75203992  0.38423284  1
  H  H36  1  0.02751412  0.75597379  0.49796228  1
  H  H37  1  0.11224815  0.76072326  0.60182043  1
  H  H38  1  0.11126043  0.69451842  0.69079249  1
  H  H39  1  0.09561766  0.69830970  0.80514078  1
  H  H40  1  0.72220647  0.18131185  0.09665813  1
  H  H41  1  0.70229155  0.31155558  0.09374075  1
  H  H42  1  0.82696142  0.26372088  0.09655278  1
  H  H43  1  0.57977956  0.31200029  0.18214327  1
  H  H44  1  0.56584484  0.31603618  0.29617706  1
  H  H45  1  0.54362864  0.25160432  0.38433318  1
  H  H46  1  0.52756349  0.25444682  0.49810844  1
  H  H47  1  0.61225532  0.25868629  0.60193945  1
  H  H48  1  0.61089138  0.19448294  0.69092123  1
  H  H49  1  0.59502850  0.19874856  0.80520447  1
  H  H50  1  0.77703151  0.18235769  0.90467467  1
  H  H51  1  0.79688800  0.31275475  0.90553687  1
  H  H52  1  0.67222767  0.26434590  0.90320556  1
  H  H53  1  0.92054485  0.30969878  0.81770497  1
  H  H54  1  0.93503414  0.31314506  0.70367612  1
  H  H55  1  0.95669445  0.25186265  0.61573420  1
  H  H56  1  0.97265977  0.25611999  0.50200692  1
  H  H57  1  0.88796957  0.26126012  0.39815804  1
  H  H58  1  0.88873733  0.19517442  0.30958302  1
  H  H59  1  0.90420119  0.19882672  0.19523081  1
  H  H60  1  0.81765163  0.72179503  0.09573162  1
  H  H61  1  0.68717255  0.70266186  0.09455103  1
  H  H62  1  0.73619735  0.82708295  0.09676945  1
  H  H63  1  0.68863899  0.57952550  0.18255356  1
  H  H64  1  0.68460812  0.56540366  0.29662763  1
  H  H65  1  0.74857496  0.54339870  0.38436216  1
  H  H66  1  0.74540327  0.52739690  0.49813205  1
  H  H67  1  0.74077622  0.61204919  0.60194978  1
  H  H68  1  0.80485791  0.61089234  0.69054132  1
  H  H69  1  0.80072717  0.59518198  0.80483213  1
  H  H70  1  0.81868622  0.77661050  0.90375148  1
  H  H71  1  0.68852873  0.79725330  0.90635404  1
  H  H72  1  0.73573986  0.67234696  0.90343054  1
  H  H73  1  0.68967528  0.92029705  0.81810736  1
  H  H74  1  0.68619224  0.93460916  0.70411283  1
  H  H75  1  0.74795905  0.95647248  0.61576316  1
  H  H76  1  0.74402333  0.97248821  0.50203555  1
  H  H77  1  0.73927494  0.88774694  0.39817705  1
  H  H78  1  0.80548445  0.88872484  0.30920430  1
  H  H79  1  0.80169594  0.90436019  0.19485729  1
  Pb  Pb80  1  0.99735951  1.00166213  0.99348717  1
  Pb  Pb81  1  -0.00171022  0.50267869  0.00658691  1
  Pb  Pb82  1  0.49836939  0.00268116  0.00660326  1
  Pb  Pb83  1  0.49728548  0.50167901  0.99331816  1
  C  C84  1  0.24396910  0.25706061  0.81724448  1
  C  C85  1  0.21327420  0.35260519  0.78955718  1
  C  C86  1  0.21172069  0.35973901  0.72474856  1
  C  C87  1  0.24392094  0.27362402  0.68712462  1
  C  C88  1  0.24361525  0.28202299  0.61806141  1
  C  C89  1  0.24500347  0.38397244  0.58773859  1
  C  C90  1  0.24432702  0.39335296  0.52374102  1
  C  C91  1  0.24372188  0.30142778  0.48510859  1
  C  C92  1  0.24381178  0.30822305  0.41917346  1
  C  C93  1  0.24508553  0.21769648  0.38180806  1
  C  C94  1  0.24584621  0.22606267  0.31273544  1
  C  C95  1  0.27784742  0.32100261  0.28219451  1
  C  C96  1  0.27605904  0.33085689  0.21751966  1
  C  C97  1  0.24501934  0.24311160  0.18263274  1
  C  C98  1  0.21537979  0.14709246  0.21048890  1
  C  C99  1  0.21423766  0.13966814  0.27528476  1
  C  C100  1  0.24525436  0.11577564  0.41215565  1
  C  C101  1  0.24360870  0.10642130  0.47614800  1
  C  C102  1  0.24307339  0.19834923  0.51476845  1
  C  C103  1  0.24205738  0.19152795  0.58070129  1
  C  C104  1  0.27652513  0.17903565  0.71747085  1
  C  C105  1  0.27519247  0.16945788  0.78216622  1
  C  C106  1  0.25720297  0.75549632  0.81719935  1
  C  C107  1  0.35293219  0.78593728  0.78928246  1
  C  C108  1  0.36017199  0.78738423  0.72448333  1
  C  C109  1  0.27391074  0.75520469  0.68710292  1
  C  C110  1  0.28225234  0.75572696  0.61804013  1
  C  C111  1  0.38417822  0.75462031  0.58771291  1
  C  C112  1  0.39353269  0.75562389  0.52371798  1
  C  C113  1  0.30159481  0.75640577  0.48509786  1
  C  C114  1  0.30840928  0.75673895  0.41916524  1
  C  C115  1  0.21791866  0.75558115  0.38178831  1
  C  C116  1  0.22634091  0.75504474  0.31271879  1
  C  C117  1  0.32118031  0.72306463  0.28240807  1
  C  C118  1  0.33092494  0.72468736  0.21772709  1
  C  C119  1  0.24324797  0.75552714  0.18259030  1
  C  C120  1  0.14741167  0.78541719  0.21022383  1
  C  C121  1  0.14008763  0.78668254  0.27502816  1
  C  C122  1  0.11597603  0.75513124  0.41212817  1
  C  C123  1  0.10660136  0.75645456  0.47611823  1
  C  C124  1  0.19851766  0.75681337  0.51475448  1
  C  C125  1  0.19172558  0.75739907  0.58068497  1
  C  C126  1  0.17922261  0.72257188  0.71768247  1
  C  C127  1  0.16952765  0.72406305  0.78237352  1
  C  C128  1  0.74291859  0.25604791  0.18275539  1
  C  C129  1  0.64738600  0.28674503  0.21044278  1
  C  C130  1  0.64024282  0.28829335  0.27525040  1
  C  C131  1  0.72636641  0.25608863  0.31287555  1
  C  C132  1  0.71796597  0.25639025  0.38193819  1
  C  C133  1  0.61602180  0.25499586  0.41226446  1
  C  C134  1  0.60664380  0.25567022  0.47626072  1
  C  C135  1  0.69857236  0.25627779  0.51489351  1
  C  C136  1  0.69178091  0.25618903  0.58082759  1
  C  C137  1  0.78230979  0.25492118  0.61819215  1
  C  C138  1  0.77394775  0.25416562  0.68726488  1
  C  C139  1  0.67900913  0.22216300  0.71780694  1
  C  C140  1  0.66915705  0.22395580  0.78248174  1
  C  C141  1  0.75690240  0.25499935  0.81736819  1
  C  C142  1  0.85292164  0.28463970  0.78951098  1
  C  C143  1  0.86034420  0.28577531  0.72471490  1
  C  C144  1  0.88422830  0.25475192  0.58784222  1
  C  C145  1  0.89357927  0.25639587  0.52385038  1
  C  C146  1  0.80164798  0.25693033  0.48523029  1
  C  C147  1  0.80846611  0.25794869  0.41929811  1
  C  C148  1  0.82094554  0.22348389  0.28252878  1
  C  C149  1  0.83052820  0.22481343  0.21783355  1
  C  C150  1  0.74448865  0.74278557  0.18280025  1
  C  C151  1  0.71404432  0.64705126  0.21071775  1
  C  C152  1  0.71260506  0.63981747  0.27551823  1
  C  C153  1  0.74478513  0.72607817  0.31289730  1
  C  C154  1  0.74426770  0.71774239  0.38196040  1
  C  C155  1  0.74537457  0.61581791  0.41228950  1
  C  C156  1  0.74437231  0.60646830  0.47628458  1
  C  C157  1  0.74359052  0.69840744  0.51490356  1
  C  C158  1  0.74325532  0.69159718  0.58083656  1
  C  C159  1  0.74441418  0.78209005  0.61821222  1
  C  C160  1  0.74494453  0.77367333  0.68728182  1
  C  C161  1  0.77692749  0.67883475  0.71759231  1
  C  C162  1  0.77530424  0.66909440  0.78227351  1
  C  C163  1  0.74446005  0.75676368  0.81740939  1
  C  C164  1  0.71456370  0.85260460  0.78977752  1
  C  C165  1  0.71330559  0.85992621  0.72497141  1
  C  C166  1  0.74486918  0.88403035  0.58787002  1
  C  C167  1  0.74354744  0.89340169  0.52387956  1
  C  C168  1  0.74318663  0.80148303  0.48524482  1
  C  C169  1  0.74260026  0.80827092  0.41931394  1
  C  C170  1  0.77742029  0.82076653  0.28231633  1
  C  C171  1  0.77592415  0.83045517  0.21762547  1
  I  I172  1  0.24691705  0.04261673  0.99919096  1
  I  I173  1  0.24667606  0.45894472  0.00050623  1
  I  I174  1  0.74677152  0.95846520  0.00069200  1
  I  I175  1  0.74679615  0.54215111  0.99938097  1
  I  I176  1  0.95738508  0.25311865  0.00082418  1
  I  I177  1  0.04155131  0.75325880  0.99931767  1
  I  I178  1  0.54103996  0.25328506  0.99948926  1
  I  I179  1  0.45783984  0.75316720  0.00060514  1
  I  I180  1  0.99642116  1.00008045  0.84892250  1
  I  I181  1  0.98629747  0.00548054  0.14206471  1
  I  I182  1  0.99410565  0.51398360  0.85807092  1
  I  I183  1  -0.00013349  0.50374556  0.15115847  1
  I  I184  1  0.49472300  0.01413134  0.85809450  1
  I  I185  1  0.50017494  0.00358911  0.15118315  1
  I  I186  1  0.49626523  0.49987611  0.84873070  1
  I  I187  1  0.48557598  0.50566314  0.14175445  1
  N  N188  1  0.24666053  0.25043390  0.88593349  1
  N  N189  1  0.24620257  0.25029325  0.11392640  1
  N  N190  1  0.25036405  0.75377667  0.88591596  1
  N  N191  1  0.25022822  0.75335527  0.11390557  1
  N  N192  1  0.74955750  0.25332645  0.11406686  1
  N  N193  1  0.74972085  0.25378961  0.88607401  1
  N  N194  1  0.74623172  0.74961887  0.11408416  1
  N  N195  1  0.74665670  0.74978360  0.88609433  1
