# generated using pymatgen
data_H26PbC30(I2N)2
_symmetry_space_group_name_H-M   'P 1'
_cell_length_a   12.63440199
_cell_length_b   12.52584943
_cell_length_c   27.74628457
_cell_angle_alpha   89.80410326
_cell_angle_beta   89.80167488
_cell_angle_gamma   89.97500874
_symmetry_Int_Tables_number   1
_chemical_formula_structural   H26PbC30(I2N)2
_chemical_formula_sum   'H104 Pb4 C120 I16 N8'
_cell_volume   4390.98076434
_cell_formula_units_Z   4
loop_
 _symmetry_equiv_pos_site_id
 _symmetry_equiv_pos_as_xyz
  1  'x, y, z'
loop_
 _atom_site_type_symbol
 _atom_site_label
 _atom_site_symmetry_multiplicity
 _atom_site_fract_x
 _atom_site_fract_y
 _atom_site_fract_z
 _atom_site_occupancy
  H  H0  1  0.26805834  0.17844773  0.92910443  1
  H  H1  1  0.17227869  0.26933030  0.92638737  1
  H  H2  1  0.29699272  0.30930955  0.92770826  1
  H  H3  1  0.19722053  0.08654305  0.85637221  1
  H  H4  1  0.19347539  0.08745622  0.76740364  1
  H  H5  1  0.20268521  0.41532551  0.69950243  1
  H  H6  1  0.20555607  0.41568884  0.61054775  1
  H  H7  1  0.13167933  0.12587165  0.54468438  1
  H  H8  1  0.13072026  0.12692926  0.45524836  1
  H  H9  1  0.08177135  0.27577310  0.38877606  1
  H  H10  1  0.08209146  0.27713235  0.29937387  1
  H  H11  1  0.17120432  0.40278477  0.23300704  1
  H  H12  1  0.17261448  0.40409383  0.14363336  1
  H  H13  1  0.30293942  0.19663603  0.07204853  1
  H  H14  1  0.17469060  0.22254582  0.07363344  1
  H  H15  1  0.26036827  0.32358271  0.07032504  1
  H  H16  1  0.32756522  0.09702528  0.14366826  1
  H  H17  1  0.32925907  0.09736505  0.23295157  1
  H  H18  1  0.41800182  0.22207715  0.29898780  1
  H  H19  1  0.41818272  0.22311391  0.38838524  1
  H  H20  1  0.36932784  0.37202964  0.45465202  1
  H  H21  1  0.36790900  0.37304607  0.54408773  1
  H  H22  1  0.29391752  0.08373687  0.61107539  1
  H  H23  1  0.29705309  0.08465832  0.70001454  1
  H  H24  1  0.30659597  0.41278162  0.76666372  1
  H  H25  1  0.30298211  0.41365020  0.85560236  1
  H  H26  1  0.17970934  0.73258781  0.92949788  1
  H  H27  1  0.27035002  0.82852244  0.92627965  1
  H  H28  1  0.30939350  0.70230003  0.92774687  1
  H  H29  1  0.08783645  0.80257485  0.85647204  1
  H  H30  1  0.08847916  0.80649657  0.76751152  1
  H  H31  1  0.41269522  0.80074183  0.69955645  1
  H  H32  1  0.41321673  0.79789534  0.61050346  1
  H  H33  1  0.12599253  0.86824822  0.54440353  1
  H  H34  1  0.12680970  0.86911737  0.45496568  1
  H  H35  1  0.27262309  0.92019946  0.38839597  1
  H  H36  1  0.27396870  0.92014632  0.29904072  1
  H  H37  1  0.40196576  0.82831296  0.23300715  1
  H  H38  1  0.40362765  0.82689105  0.14362061  1
  H  H39  1  0.19801476  0.69654306  0.07207111  1
  H  H40  1  0.22402200  0.82562083  0.07334308  1
  H  H41  1  0.32395592  0.73882298  0.07071271  1
  H  H42  1  0.09813601  0.67273851  0.14385460  1
  H  H43  1  0.09798356  0.67158375  0.23318606  1
  H  H44  1  0.22504456  0.58019318  0.29940452  1
  H  H45  1  0.22603122  0.57960946  0.38876309  1
  H  H46  1  0.37193500  0.63067648  0.45489162  1
  H  H47  1  0.37329598  0.63191956  0.54432530  1
  H  H48  1  0.08645756  0.70247493  0.61117105  1
  H  H49  1  0.08705768  0.69957344  0.70023570  1
  H  H50  1  0.41153248  0.69327517  0.76687677  1
  H  H51  1  0.41276704  0.69731027  0.85575487  1
  H  H52  1  0.82112844  0.23172211  0.07081686  1
  H  H53  1  0.73083774  0.32822167  0.07350212  1
  H  H54  1  0.69126797  0.20241961  0.07219434  1
  H  H55  1  0.91240103  0.30252478  0.14351129  1
  H  H56  1  0.91138284  0.30659456  0.23245519  1
  H  H57  1  0.58712086  0.30070072  0.30035487  1
  H  H58  1  0.58681838  0.29792631  0.38942019  1
  H  H59  1  0.87412513  0.36831074  0.45532860  1
  H  H60  1  0.87302347  0.36913699  0.54476490  1
  H  H61  1  0.72725379  0.42036636  0.61122552  1
  H  H62  1  0.72595574  0.41996726  0.70058547  1
  H  H63  1  0.59788965  0.32816936  0.76685803  1
  H  H64  1  0.59654468  0.32693190  0.85626369  1
  H  H65  1  0.80260164  0.19638708  0.92790840  1
  H  H66  1  0.77681651  0.32572114  0.92647394  1
  H  H67  1  0.67681209  0.23920418  0.92951903  1
  H  H68  1  0.90213592  0.17278051  0.85626482  1
  H  H69  1  0.90195939  0.17137753  0.76695357  1
  H  H70  1  0.77490138  0.07998062  0.70096616  1
  H  H71  1  0.77386606  0.07973780  0.61161064  1
  H  H72  1  0.62799138  0.13079443  0.54536819  1
  H  H73  1  0.62692280  0.13206327  0.45593496  1
  H  H74  1  0.91365321  0.20250433  0.38890451  1
  H  H75  1  0.91283743  0.19952863  0.29985031  1
  H  H76  1  0.58839706  0.19341105  0.23316829  1
  H  H77  1  0.58753694  0.19726791  0.14426640  1
  H  H78  1  0.76749036  0.82091483  0.07062779  1
  H  H79  1  0.67226352  0.72964941  0.07377297  1
  H  H80  1  0.79736309  0.69023371  0.07236436  1
  H  H81  1  0.69718077  0.91335683  0.14366433  1
  H  H82  1  0.69350130  0.91271169  0.23266167  1
  H  H83  1  0.70267843  0.58481426  0.30057203  1
  H  H84  1  0.70565156  0.58421218  0.38951223  1
  H  H85  1  0.63175400  0.87398822  0.45557187  1
  H  H86  1  0.63074103  0.87324648  0.54501437  1
  H  H87  1  0.58191712  0.72435694  0.61159815  1
  H  H88  1  0.58190861  0.72293291  0.70100011  1
  H  H89  1  0.67103488  0.59734260  0.76710352  1
  H  H90  1  0.67272638  0.59558838  0.85646425  1
  H  H91  1  0.80305642  0.80247395  0.92796739  1
  H  H92  1  0.67509630  0.77636743  0.92660954  1
  H  H93  1  0.76103395  0.67538118  0.92938882  1
  H  H94  1  0.82769613  0.90254555  0.85621815  1
  H  H95  1  0.82903464  0.90267212  0.76692164  1
  H  H96  1  0.91777777  0.77799597  0.70062654  1
  H  H97  1  0.91829433  0.77700580  0.61122731  1
  H  H98  1  0.86945534  0.62805914  0.54508414  1
  H  H99  1  0.86808079  0.62672107  0.45564918  1
  H  H100  1  0.79399033  0.91610130  0.38885928  1
  H  H101  1  0.79701365  0.91541577  0.29990310  1
  H  H102  1  0.80665097  0.58731073  0.23325822  1
  H  H103  1  0.80291408  0.58617389  0.14435306  1
  Pb  Pb104  1  1.00224685  0.99747567  0.00631660  1
  Pb  Pb105  1  0.00174221  0.49826999  0.99346456  1
  Pb  Pb106  1  0.50312817  -0.00152906  0.99346641  1
  Pb  Pb107  1  0.50088878  0.49764891  0.00678551  1
  C  C108  1  0.25044207  0.25004614  0.86042250  1
  C  C109  1  0.22162703  0.15749468  0.83643931  1
  C  C110  1  0.22011848  0.15866431  0.78628225  1
  C  C111  1  0.24999258  0.25009069  0.75999930  1
  C  C112  1  0.24984565  0.24998864  0.70667077  1
  C  C113  1  0.22532492  0.34285326  0.68035331  1
  C  C114  1  0.22622107  0.34296443  0.63014657  1
  C  C115  1  0.24966480  0.24967088  0.60425730  1
  C  C116  1  0.24973551  0.24953372  0.55078299  1
  C  C117  1  0.18386725  0.18003367  0.52494711  1
  C  C118  1  0.18289266  0.18108946  0.47470143  1
  C  C119  1  0.24997595  0.24949892  0.44851418  1
  C  C120  1  0.24999164  0.24950357  0.39508645  1
  C  C121  1  0.15573669  0.26381478  0.36913514  1
  C  C122  1  0.15597722  0.26530106  0.31890797  1
  C  C123  1  0.25006791  0.24974758  0.29280671  1
  C  C124  1  0.25014867  0.25003920  0.23944025  1
  C  C125  1  0.20538738  0.33540732  0.21362058  1
  C  C126  1  0.20667294  0.33707500  0.16342417  1
  C  C127  1  0.25024497  0.25053185  0.13931782  1
  C  C128  1  0.29369677  0.16395208  0.16348397  1
  C  C129  1  0.29510966  0.16502153  0.21365857  1
  C  C130  1  0.34408555  0.23392097  0.31868849  1
  C  C131  1  0.34426452  0.23518104  0.36891049  1
  C  C132  1  0.31700154  0.31787660  0.47434839  1
  C  C133  1  0.31579220  0.31894715  0.52459285  1
  C  C134  1  0.27322202  0.15654781  0.63044487  1
  C  C135  1  0.27428971  0.15699438  0.68064416  1
  C  C136  1  0.28015196  0.34148711  0.78582764  1
  C  C137  1  0.27889122  0.34255277  0.83597871  1
  C  C138  1  0.25038034  0.74979865  0.86057013  1
  C  C139  1  0.15830199  0.77834129  0.83657088  1
  C  C140  1  0.15927754  0.77979859  0.78639807  1
  C  C141  1  0.24998619  0.75002132  0.76014695  1
  C  C142  1  0.24986161  0.75018078  0.70682258  1
  C  C143  1  0.34144293  0.77649534  0.68040784  1
  C  C144  1  0.34164248  0.77558952  0.63019198  1
  C  C145  1  0.24981368  0.75020194  0.60425541  1
  C  C146  1  0.24969375  0.75012047  0.55077849  1
  C  C147  1  0.18014225  0.81602527  0.52480355  1
  C  C148  1  0.18101841  0.81698591  0.47455245  1
  C  C149  1  0.24932813  0.74986269  0.44849742  1
  C  C150  1  0.24929528  0.74990170  0.39505821  1
  C  C151  1  0.26203979  0.84537260  0.36895629  1
  C  C152  1  0.26359468  0.84528265  0.31872840  1
  C  C153  1  0.24952382  0.75016089  0.29290858  1
  C  C154  1  0.24989618  0.75008426  0.23951934  1
  C  C155  1  0.33497710  0.79452239  0.21363946  1
  C  C156  1  0.33683415  0.79308713  0.16344675  1
  C  C157  1  0.25099014  0.74952893  0.13941150  1
  C  C158  1  0.16473498  0.70632824  0.16360361  1
  C  C159  1  0.16544351  0.70524870  0.21380569  1
  C  C160  1  0.23529337  0.65492818  0.31894841  1
  C  C161  1  0.23662444  0.65457028  0.36917351  1
  C  C162  1  0.31781044  0.68285698  0.47451077  1
  C  C163  1  0.31903404  0.68406088  0.52475451  1
  C  C164  1  0.15801422  0.72482234  0.63056975  1
  C  C165  1  0.15826879  0.72389791  0.68078588  1
  C  C166  1  0.34083138  0.71993847  0.78597869  1
  C  C167  1  0.34212657  0.72136616  0.83611778  1
  C  C168  1  0.75002027  0.24954690  0.13944902  1
  C  C169  1  0.84192344  0.27824427  0.16343753  1
  C  C170  1  0.84070572  0.27982624  0.21359607  1
  C  C171  1  0.74991783  0.25004804  0.23985533  1
  C  C172  1  0.75000053  0.25018214  0.29317957  1
  C  C173  1  0.65844897  0.27649201  0.31954537  1
  C  C174  1  0.65837431  0.27564434  0.36976466  1
  C  C175  1  0.75029700  0.25032195  0.39574127  1
  C  C176  1  0.75043942  0.25025589  0.44921826  1
  C  C177  1  0.81990668  0.31611512  0.47503571  1
  C  C178  1  0.81886837  0.31708442  0.52528542  1
  C  C179  1  0.75047727  0.25002890  0.55149724  1
  C  C180  1  0.75047314  0.25002803  0.60493872  1
  C  C181  1  0.73778872  0.34543237  0.63082030  1
  C  C182  1  0.73626201  0.34517696  0.68104889  1
  C  C183  1  0.75028850  0.24995932  0.70709137  1
  C  C184  1  0.74997966  0.24988607  0.76048158  1
  C  C185  1  0.66499205  0.29443169  0.78628819  1
  C  C186  1  0.66335394  0.29319767  0.83649530  1
  C  C187  1  0.74937012  0.24972269  0.86060216  1
  C  C188  1  0.83549109  0.20641897  0.83646101  1
  C  C189  1  0.83456550  0.20511879  0.78627265  1
  C  C190  1  0.76457672  0.15480688  0.68126875  1
  C  C191  1  0.76321812  0.15461270  0.63104427  1
  C  C192  1  0.68212798  0.18300681  0.52564197  1
  C  C193  1  0.68106687  0.18420110  0.47539501  1
  C  C194  1  0.84204429  0.22487555  0.36947062  1
  C  C195  1  0.84166464  0.22389920  0.31926012  1
  C  C196  1  0.65917938  0.21998480  0.21404021  1
  C  C197  1  0.65811909  0.22128881  0.16388623  1
  C  C198  1  0.75020612  0.74969346  0.13956100  1
  C  C199  1  0.72147474  0.84238476  0.16356804  1
  C  C200  1  0.72006042  0.84139714  0.21373752  1
  C  C201  1  0.74994456  0.75003067  0.23999750  1
  C  C202  1  0.74981568  0.75013437  0.29332532  1
  C  C203  1  0.72533965  0.65722418  0.31968322  1
  C  C204  1  0.72631108  0.65696891  0.36988617  1
  C  C205  1  0.74980666  0.75017808  0.39573964  1
  C  C206  1  0.74987681  0.75030285  0.44921555  1
  C  C207  1  0.68395720  0.81989228  0.47520510  1
  C  C208  1  0.68298481  0.81901956  0.52545464  1
  C  C209  1  0.75013528  0.75069836  0.55148182  1
  C  C210  1  0.75010368  0.75072813  0.60490965  1
  C  C211  1  0.65578222  0.73635121  0.63108054  1
  C  C212  1  0.65586301  0.73483637  0.68130768  1
  C  C213  1  0.74984698  0.75044734  0.70718460  1
  C  C214  1  0.74992034  0.75007524  0.76055211  1
  C  C215  1  0.70526665  0.66459153  0.78643752  1
  C  C216  1  0.70679569  0.66263391  0.83661653  1
  C  C217  1  0.75051580  0.74894567  0.86066060  1
  C  C218  1  0.79381522  0.83570518  0.83645567  1
  C  C219  1  0.79495799  0.83492383  0.78626502  1
  C  C220  1  0.84394610  0.76623693  0.68108388  1
  C  C221  1  0.84429243  0.76498643  0.63086024  1
  C  C222  1  0.81715715  0.68218245  0.52549258  1
  C  C223  1  0.81594310  0.68093043  0.47525226  1
  C  C224  1  0.77330223  0.84335356  0.36951688  1
  C  C225  1  0.77428493  0.84304911  0.31931355  1
  C  C226  1  0.78010656  0.65854339  0.21413806  1
  C  C227  1  0.77874370  0.65730022  0.16400239  1
  I  I228  1  0.25430217  0.03408943  0.99889495  1
  I  I229  1  0.25184044  0.46119520  0.00300278  1
  I  I230  1  0.75434800  0.96025591  0.00089483  1
  I  I231  1  0.75172001  0.53329210  0.99717979  1
  I  I232  1  0.96457972  0.24671265  0.00152888  1
  I  I233  1  0.04111367  0.74658558  0.99822147  1
  I  I234  1  0.54016584  0.24750110  0.99797020  1
  I  I235  1  0.46548127  0.74762490  0.00248594  1
  I  I236  1  0.00657580  0.99889542  0.89181608  1
  I  I237  1  0.00810295  0.00227092  0.11751741  1
  I  I238  1  0.99842314  0.49434920  0.88233519  1
  I  I239  1  0.99090104  0.50089626  0.10794053  1
  I  I240  1  0.50050814  0.99118714  0.88234840  1
  I  I241  1  0.50840412  0.00375987  0.10797135  1
  I  I242  1  0.48906834  0.50178413  0.89230740  1
  I  I243  1  0.50642962  0.49880008  0.11780408  1
  N  N244  1  0.24734429  0.25151424  0.91363693  1
  N  N245  1  0.24735854  0.24862738  0.08616713  1
  N  N246  1  0.25228206  0.75288514  0.91372306  1
  N  N247  1  0.24962295  0.75233587  0.08618314  1
  N  N248  1  0.74860159  0.25252836  0.08627333  1
  N  N249  1  0.75111139  0.25248371  0.91381132  1
  N  N250  1  0.74721296  0.74781650  0.08636752  1
  N  N251  1  0.74776142  0.75035848  0.91383898  1
