# generated using pymatgen
data_H14PbC16S4(I2N)2
_symmetry_space_group_name_H-M   'P 1'
_cell_length_a   11.88935873
_cell_length_b   11.89001785
_cell_length_c   22.56073015
_cell_angle_alpha   89.58951354
_cell_angle_beta   89.59427791
_cell_angle_gamma   98.83981995
_symmetry_Int_Tables_number   1
_chemical_formula_structural   H14PbC16S4(I2N)2
_chemical_formula_sum   'H56 Pb4 C64 S16 I16 N8'
_cell_volume   3151.21867740
_cell_formula_units_Z   4
loop_
 _symmetry_equiv_pos_site_id
 _symmetry_equiv_pos_as_xyz
  1  'x, y, z'
loop_
 _atom_site_type_symbol
 _atom_site_label
 _atom_site_symmetry_multiplicity
 _atom_site_fract_x
 _atom_site_fract_y
 _atom_site_fract_z
 _atom_site_occupancy
  H  H0  1  0.31715751  0.15438264  0.87687778  1
  H  H1  1  0.35416300  0.29322907  0.88914717  1
  H  H2  1  0.21766847  0.23297330  0.90322105  1
  H  H3  1  0.24155928  0.43851826  0.82246932  1
  H  H4  1  0.22438701  0.44570909  0.70610914  1
  H  H5  1  0.24669431  0.05142091  0.64581828  1
  H  H6  1  0.25023634  0.05042531  0.53018147  1
  H  H7  1  0.24964398  0.44960947  0.46977452  1
  H  H8  1  0.25305465  0.44857120  0.35412752  1
  H  H9  1  0.27512027  0.05413622  0.29395015  1
  H  H10  1  0.25830301  0.06130799  0.17756201  1
  H  H11  1  0.14659483  0.20689283  0.11063171  1
  H  H12  1  0.18367071  0.34566148  0.12299158  1
  H  H13  1  0.28324654  0.26694431  0.09687079  1
  H  H14  1  0.15432218  0.81692313  0.87684768  1
  H  H15  1  0.23283454  0.71737077  0.90318990  1
  H  H16  1  0.29311787  0.85388222  0.88923243  1
  H  H17  1  0.43871278  0.74182658  0.82247115  1
  H  H18  1  0.44593162  0.72469397  0.70611784  1
  H  H19  1  0.05146888  0.74665127  0.64585948  1
  H  H20  1  0.05043272  0.75030376  0.53021423  1
  H  H21  1  0.44964629  0.74988550  0.46976811  1
  H  H22  1  0.44853445  0.75326802  0.35412433  1
  H  H23  1  0.05402168  0.77515634  0.29397960  1
  H  H24  1  0.06107495  0.75813786  0.17760162  1
  H  H25  1  0.26688684  0.78281643  0.09686086  1
  H  H26  1  0.34526099  0.68299104  0.12305946  1
  H  H27  1  0.20641999  0.64633166  0.11069816  1
  H  H28  1  0.84563270  0.18363737  0.12302974  1
  H  H29  1  0.70684573  0.14635279  0.11074484  1
  H  H30  1  0.76672680  0.28299675  0.09682671  1
  H  H31  1  0.56124114  0.25835991  0.17757071  1
  H  H32  1  0.55409211  0.27521351  0.29395728  1
  H  H33  1  0.94857438  0.25324539  0.35413929  1
  H  H34  1  0.94964417  0.24983015  0.46978791  1
  H  H35  1  0.55043458  0.25025593  0.53020161  1
  H  H36  1  0.55146508  0.24673147  0.64583729  1
  H  H37  1  0.94586176  0.22462963  0.70616605  1
  H  H38  1  0.93846453  0.24151313  0.82252983  1
  H  H39  1  0.79268731  0.35379269  0.88919660  1
  H  H40  1  0.65393387  0.31632645  0.87688027  1
  H  H41  1  0.73288408  0.21714523  0.90320631  1
  H  H42  1  0.68374531  0.84560435  0.12299398  1
  H  H43  1  0.78322838  0.76680770  0.09683615  1
  H  H44  1  0.64657990  0.70684011  0.11066539  1
  H  H45  1  0.75818872  0.56115803  0.17757686  1
  H  H46  1  0.77497448  0.55398929  0.29395770  1
  H  H47  1  0.75320872  0.94852587  0.35411648  1
  H  H48  1  0.74970139  0.94962016  0.46974613  1
  H  H49  1  0.75013308  0.55045929  0.53021903  1
  H  H50  1  0.74658416  0.55150722  0.64585857  1
  H  H51  1  0.72437624  0.94584903  0.70610788  1
  H  H52  1  0.74157410  0.93863897  0.82246896  1
  H  H53  1  0.71764795  0.73307691  0.90317877  1
  H  H54  1  0.81705468  0.65437401  0.87683892  1
  H  H55  1  0.85419799  0.79319330  0.88914303  1
  Pb  Pb56  1  0.99947082  0.00035984  0.99968865  1
  Pb  Pb57  1  0.99949187  0.49976482  1.00015499  1
  Pb  Pb58  1  0.49951109  0.99982166  -0.00005086  1
  Pb  Pb59  1  0.49947426  0.50054626  0.99985543  1
  C  C60  1  0.26193951  0.26098206  0.81334380  1
  C  C61  1  0.24476952  0.36636106  0.79339095  1
  C  C62  1  0.23604108  0.36940156  0.73085614  1
  C  C63  1  0.24678605  0.26634586  0.70430824  1
  C  C64  1  0.24597918  0.23500007  0.64254208  1
  C  C65  1  0.24749537  0.12771597  0.61864301  1
  C  C66  1  0.24943712  0.12716211  0.55623023  1
  C  C67  1  0.24948685  0.23416516  0.53085643  1
  C  C68  1  0.25072842  0.26592327  0.46910769  1
  C  C69  1  0.25057725  0.37288912  0.44372521  1
  C  C70  1  0.25241057  0.37230135  0.38131553  1
  C  C71  1  0.25401399  0.26503222  0.35742884  1
  C  C72  1  0.25315480  0.23361799  0.29567163  1
  C  C73  1  0.26371218  0.13048384  0.26916868  1
  C  C74  1  0.25515315  0.13349432  0.20662847  1
  C  C75  1  0.23826674  0.23893569  0.18663977  1
  C  C76  1  0.26106091  0.76185681  0.81334759  1
  C  C77  1  0.36651409  0.74488879  0.79339876  1
  C  C78  1  0.36955798  0.73616295  0.73086337  1
  C  C79  1  0.26644423  0.74668547  0.70431914  1
  C  C80  1  0.23503864  0.74580364  0.64255576  1
  C  C81  1  0.12776010  0.74740039  0.61866619  1
  C  C82  1  0.12717572  0.74938406  0.55626476  1
  C  C83  1  0.23415222  0.74934814  0.53087543  1
  C  C84  1  0.26589361  0.75062259  0.46912319  1
  C  C85  1  0.37287479  0.75065787  0.44372794  1
  C  C86  1  0.37225056  0.75248000  0.38132010  1
  C  C87  1  0.26493337  0.75390994  0.35744246  1
  C  C88  1  0.23347891  0.75304934  0.29568743  1
  C  C89  1  0.13033021  0.76363349  0.26919418  1
  C  C90  1  0.13328877  0.75499894  0.20665657  1
  C  C91  1  0.23871318  0.73806474  0.18665613  1
  C  C92  1  0.73888087  0.23832321  0.18664767  1
  C  C93  1  0.63344153  0.25521429  0.20663814  1
  C  C94  1  0.63042846  0.26374798  0.26917967  1
  C  C95  1  0.73355240  0.25310886  0.29568596  1
  C  C96  1  0.76496457  0.25383514  0.35744530  1
  C  C97  1  0.87227529  0.25240826  0.38132870  1
  C  C98  1  0.87288267  0.25055593  0.44373733  1
  C  C99  1  0.76588601  0.25048813  0.46912392  1
  C  C100  1  0.73415772  0.24932493  0.53087175  1
  C  C101  1  0.62717038  0.24938408  0.55624797  1
  C  C102  1  0.62775479  0.24748733  0.61865887  1
  C  C103  1  0.73504846  0.24593775  0.64255006  1
  C  C104  1  0.76639439  0.24672459  0.70431529  1
  C  C105  1  0.86946488  0.23609070  0.73088788  1
  C  C106  1  0.86631872  0.24466413  0.79342922  1
  C  C107  1  0.76084742  0.26160780  0.81335149  1
  C  C108  1  0.73838123  0.73885279  0.18663307  1
  C  C109  1  0.75513624  0.63337675  0.20663129  1
  C  C110  1  0.76367942  0.63036069  0.26917642  1
  C  C111  1  0.75322969  0.73354156  0.29567772  1
  C  C112  1  0.75402653  0.76495748  0.35743123  1
  C  C113  1  0.75247336  0.87226311  0.38130105  1
  C  C114  1  0.75055307  0.87288077  0.44372147  1
  C  C115  1  0.75055453  0.76589599  0.46911858  1
  C  C116  1  0.74926938  0.73418272  0.53086822  1
  C  C117  1  0.74927301  0.62718466  0.55625569  1
  C  C118  1  0.74735589  0.62778436  0.61867191  1
  C  C119  1  0.74584743  0.73508097  0.64254661  1
  C  C120  1  0.74676051  0.76648016  0.70430508  1
  C  C121  1  0.73603599  0.86953512  0.73085219  1
  C  C122  1  0.74479424  0.86649164  0.79338633  1
  C  C123  1  0.76198940  0.76110913  0.81332551  1
  S  S124  1  0.23233189  0.33521088  0.24261861  1
  S  S125  1  0.25290270  0.16442368  0.41383557  1
  S  S126  1  0.24739365  0.33566508  0.58613681  1
  S  S127  1  0.26791427  0.16478830  0.75732369  1
  S  S128  1  0.33504071  0.73220163  0.24262485  1
  S  S129  1  0.16432141  0.75258502  0.41386348  1
  S  S130  1  0.33566343  0.74709242  0.58614347  1
  S  S131  1  0.16482407  0.76764331  0.75732881  1
  S  S132  1  0.66470173  0.26755812  0.75730842  1
  S  S133  1  0.83568202  0.24723910  0.58614448  1
  S  S134  1  0.66431824  0.25238698  0.41385839  1
  S  S135  1  0.83516273  0.23237279  0.24262852  1
  S  S136  1  0.76798930  0.66493659  0.75730471  1
  S  S137  1  0.74716848  0.83570380  0.58613419  1
  S  S138  1  0.75271100  0.66436297  0.41386195  1
  S  S139  1  0.73259638  0.83517254  0.24260436  1
  I  I140  1  0.23763948  0.91914479  0.02271969  1
  I  I141  1  0.26167235  0.58222506  0.97780257  1
  I  I142  1  0.76174389  0.08213580  0.97780631  1
  I  I143  1  0.73752930  0.41900953  0.02260326  1
  I  I144  1  0.08250229  0.26211043  0.97788814  1
  I  I145  1  0.91951492  0.73799442  0.02277955  1
  I  I146  1  0.41945892  0.23805794  0.02276713  1
  I  I147  1  0.58253697  0.76220197  0.97781769  1
  I  I148  1  0.02476800  0.95928878  0.86079297  1
  I  I149  1  0.97515613  0.04120545  0.13869519  1
  I  I150  1  0.95890963  0.52457421  0.86108430  1
  I  I151  1  0.04087372  0.47492303  0.13897992  1
  I  I152  1  0.45920941  0.02469017  0.86095566  1
  I  I153  1  0.54106455  0.97504643  0.13888062  1
  I  I154  1  0.52464803  0.45926987  0.86094206  1
  I  I155  1  0.47513565  0.54106172  0.13883355  1
  N  N156  1  0.28717011  0.23300819  0.87385728  1
  N  N157  1  0.21351434  0.26699278  0.12608132  1
  N  N158  1  0.23295277  0.78694810  0.87385776  1
  N  N159  1  0.26670078  0.71312350  0.12611167  1
  N  N160  1  0.76690049  0.21339977  0.12610685  1
  N  N161  1  0.73269922  0.28665974  0.87386019  1
  N  N162  1  0.71355396  0.76690809  0.12607999  1
  N  N163  1  0.78716566  0.73306215  0.87383087  1
