# generated using pymatgen
data_H18PbC20S(I2N)2
_symmetry_space_group_name_H-M   'P 1'
_cell_length_a   12.25870555
_cell_length_b   12.26731207
_cell_length_c   21.08863689
_cell_angle_alpha   90.12684515
_cell_angle_beta   90.07461564
_cell_angle_gamma   90.05429335
_symmetry_Int_Tables_number   1
_chemical_formula_structural   H18PbC20S(I2N)2
_chemical_formula_sum   'H72 Pb4 C80 S4 I16 N8'
_cell_volume   3171.32614213
_cell_formula_units_Z   4
loop_
 _symmetry_equiv_pos_site_id
 _symmetry_equiv_pos_as_xyz
  1  'x, y, z'
loop_
 _atom_site_type_symbol
 _atom_site_label
 _atom_site_symmetry_multiplicity
 _atom_site_fract_x
 _atom_site_fract_y
 _atom_site_fract_z
 _atom_site_occupancy
  H  H0  1  0.31565452  0.24454107  0.90648275  1
  H  H1  1  0.19201752  0.18837581  0.90109959  1
  H  H2  1  0.30571937  0.11588144  0.88464450  1
  H  H3  1  0.26406105  0.05232477  0.78221661  1
  H  H4  1  0.26236770  0.09797193  0.66844164  1
  H  H5  1  0.26872657  0.47867647  0.61380355  1
  H  H6  1  0.26994348  0.47107451  0.49070588  1
  H  H7  1  0.26702552  0.08407347  0.45187474  1
  H  H8  1  0.26470210  0.02224893  0.34102820  1
  H  H9  1  0.26485644  0.06452516  0.22550963  1
  H  H10  1  0.30614850  0.24644626  0.09380003  1
  H  H11  1  0.19520075  0.16975554  0.10488527  1
  H  H12  1  0.32216180  0.12145416  0.12224657  1
  H  H13  1  0.26299070  0.39963878  0.16389553  1
  H  H14  1  0.25915763  0.46260874  0.27533744  1
  H  H15  1  0.26086833  0.42011630  0.39006339  1
  H  H16  1  0.26221528  0.44138385  0.71671502  1
  H  H17  1  0.26472040  0.39447760  0.82978747  1
  H  H18  1  0.24594201  0.68261169  0.90575888  1
  H  H19  1  0.18822109  0.80500739  0.90145693  1
  H  H20  1  0.11676140  0.69013096  0.88452542  1
  H  H21  1  0.05176361  0.73516150  0.78228227  1
  H  H22  1  0.09714657  0.73763360  0.66844305  1
  H  H23  1  0.47821513  0.73134197  0.61362957  1
  H  H24  1  0.47058052  0.73043460  0.49041988  1
  H  H25  1  0.08317442  0.73363865  0.45189668  1
  H  H26  1  0.02150463  0.73617213  0.34109090  1
  H  H27  1  0.06376760  0.73649870  0.22564231  1
  H  H28  1  0.24532380  0.69727633  0.09320664  1
  H  H29  1  0.16898062  0.80831971  0.10595587  1
  H  H30  1  0.12048006  0.68119504  0.12168685  1
  H  H31  1  0.39918746  0.73649290  0.16380965  1
  H  H32  1  0.46217427  0.73968696  0.27517416  1
  H  H33  1  0.41955631  0.73932732  0.39001086  1
  H  H34  1  0.44094040  0.73755245  0.71626655  1
  H  H35  1  0.39428959  0.73436842  0.82937273  1
  H  H36  1  0.75397247  0.19546646  0.09295783  1
  H  H37  1  0.80664803  0.31986245  0.09975514  1
  H  H38  1  0.88328835  0.20813712  0.11304551  1
  H  H39  1  0.94759269  0.24125279  0.21721382  1
  H  H40  1  0.90252684  0.23820500  0.33108633  1
  H  H41  1  0.52154958  0.23314863  0.38633508  1
  H  H42  1  0.52909705  0.23279697  0.50944457  1
  H  H43  1  0.91636985  0.23456349  0.54836888  1
  H  H44  1  0.97796040  0.23663137  0.65918897  1
  H  H45  1  0.93547668  0.23967557  0.77487139  1
  H  H46  1  0.75160962  0.20728675  0.90708213  1
  H  H47  1  0.82714534  0.31774257  0.89386533  1
  H  H48  1  0.87773005  0.19096561  0.88071435  1
  H  H49  1  0.59985426  0.24404872  0.83622405  1
  H  H50  1  0.53715651  0.24251729  0.72475123  1
  H  H51  1  0.57996398  0.23990209  0.61010637  1
  H  H52  1  0.55860027  0.23968540  0.28370000  1
  H  H53  1  0.60490354  0.24204773  0.17053041  1
  H  H54  1  0.80948846  0.75320188  0.09375728  1
  H  H55  1  0.68462384  0.80482218  0.09861267  1
  H  H56  1  0.79554190  0.88276980  0.11315030  1
  H  H57  1  0.76101126  0.94771446  0.21708073  1
  H  H58  1  0.76255432  0.90314717  0.33098495  1
  H  H59  1  0.76692136  0.52254686  0.38626408  1
  H  H60  1  0.76695022  0.53014697  0.50940024  1
  H  H61  1  0.76444039  0.91717395  0.54827130  1
  H  H62  1  0.76276087  0.97890586  0.65904434  1
  H  H63  1  0.75958729  0.93665730  0.77462487  1
  H  H64  1  0.79026011  0.75455960  0.90744765  1
  H  H65  1  0.67874771  0.82864697  0.89238754  1
  H  H66  1  0.80484286  0.88059437  0.88074877  1
  H  H67  1  0.75560250  0.60133072  0.83612753  1
  H  H68  1  0.75735879  0.53850623  0.72474062  1
  H  H69  1  0.75954959  0.58105855  0.61000832  1
  H  H70  1  0.75891391  0.55925681  0.28388206  1
  H  H71  1  0.75765058  0.60501553  0.17071479  1
  Pb  Pb72  1  0.00048805  0.99556819  -0.00010848  1
  Pb  Pb73  1  0.00900317  0.49190642  0.00003725  1
  Pb  Pb74  1  0.49505110  0.99661221  1.00004001  1
  Pb  Pb75  1  0.51199781  0.50184538  1.00003201  1
  C  C76  1  0.26365700  0.22072286  0.81190555  1
  C  C77  1  0.26244726  0.13721308  0.76717784  1
  C  C78  1  0.26177068  0.16382760  0.70322000  1
  C  C79  1  0.26211281  0.27347248  0.68309087  1
  C  C80  1  0.26364236  0.30084672  0.61561557  1
  C  C81  1  0.26675267  0.40265278  0.58711101  1
  C  C82  1  0.26746435  0.39851575  0.52028129  1
  C  C83  1  0.26491080  0.29343856  0.49575741  1
  C  C84  1  0.26393110  0.25776754  0.42952749  1
  C  C85  1  0.26495814  0.14432054  0.41389480  1
  C  C86  1  0.26363140  0.10923011  0.35197599  1
  C  C87  1  0.26156912  0.18501495  0.30121121  1
  C  C88  1  0.26254294  0.15107579  0.23715644  1
  C  C89  1  0.26354363  0.22833191  0.18997002  1
  C  C90  1  0.26157887  0.34097727  0.20260258  1
  C  C91  1  0.25977409  0.37553069  0.26487959  1
  C  C92  1  0.26072701  0.29952991  0.31567077  1
  C  C93  1  0.26178382  0.33287002  0.38004853  1
  C  C94  1  0.26193825  0.35564963  0.72998867  1
  C  C95  1  0.26292253  0.32988197  0.79426294  1
  C  C96  1  0.22043213  0.73501012  0.81170801  1
  C  C97  1  0.13664504  0.73667422  0.76713409  1
  C  C98  1  0.16314788  0.73783080  0.70313959  1
  C  C99  1  0.27280501  0.73749639  0.68291432  1
  C  C100  1  0.30022732  0.73610443  0.61543248  1
  C  C101  1  0.40217998  0.73309596  0.58691672  1
  C  C102  1  0.39803199  0.73260657  0.52010276  1
  C  C103  1  0.29280546  0.73521706  0.49568801  1
  C  C104  1  0.25709077  0.73648849  0.42949422  1
  C  C105  1  0.14353757  0.73571402  0.41392046  1
  C  C106  1  0.10852118  0.73721374  0.35202892  1
  C  C107  1  0.18436989  0.73916988  0.30123299  1
  C  C108  1  0.15041780  0.73850743  0.23721028  1
  C  C109  1  0.22769083  0.73758591  0.18997214  1
  C  C110  1  0.34042649  0.73846214  0.20251828  1
  C  C111  1  0.37501663  0.73986049  0.26478810  1
  C  C112  1  0.29896940  0.73963931  0.31562176  1
  C  C113  1  0.33226967  0.73859913  0.37998912  1
  C  C114  1  0.35519938  0.73763807  0.72966453  1
  C  C115  1  0.32955007  0.73626789  0.79392617  1
  C  C116  1  0.77883013  0.24138371  0.18796000  1
  C  C117  1  0.86272226  0.24108253  0.23244426  1
  C  C118  1  0.83640590  0.23960871  0.29648519  1
  C  C119  1  0.72682780  0.23901768  0.31692131  1
  C  C120  1  0.69957441  0.23760477  0.38445585  1
  C  C121  1  0.59762400  0.23499780  0.41299521  1
  C  C122  1  0.60172641  0.23468714  0.47982290  1
  C  C123  1  0.70690490  0.23692419  0.50432352  1
  C  C124  1  0.74245550  0.23739079  0.57059130  1
  C  C125  1  0.85595140  0.23637194  0.58631732  1
  C  C126  1  0.89093370  0.23747433  0.64826168  1
  C  C127  1  0.81506118  0.23959350  0.69906020  1
  C  C128  1  0.84886743  0.24034832  0.76317257  1
  C  C129  1  0.77133023  0.24119586  0.81025002  1
  C  C130  1  0.65864924  0.24243742  0.79753392  1
  C  C131  1  0.62426863  0.24182756  0.73524034  1
  C  C132  1  0.70049212  0.24012183  0.68451285  1
  C  C133  1  0.66725629  0.23903874  0.62011084  1
  C  C134  1  0.64430876  0.23992728  0.27022691  1
  C  C135  1  0.66973668  0.24108204  0.20592011  1
  C  C136  1  0.76038033  0.77888035  0.18795535  1
  C  C137  1  0.76058076  0.86293580  0.23234831  1
  C  C138  1  0.76127674  0.83694718  0.29641660  1
  C  C139  1  0.76124890  0.72749027  0.31693694  1
  C  C140  1  0.76269498  0.70040947  0.38445927  1
  C  C141  1  0.76517575  0.59854163  0.41296575  1
  C  C142  1  0.76519463  0.60268106  0.47979799  1
  C  C143  1  0.76284289  0.70780717  0.50430385  1
  C  C144  1  0.76193250  0.74342565  0.57054619  1
  C  C145  1  0.76277298  0.85686262  0.58621966  1
  C  C146  1  0.76181552  0.89192285  0.64813330  1
  C  C147  1  0.75986453  0.81614393  0.69890174  1
  C  C148  1  0.75894599  0.85007203  0.76296633  1
  C  C149  1  0.75792172  0.77276122  0.81009100  1
  C  C150  1  0.75717354  0.66010228  0.79747663  1
  C  C151  1  0.75790307  0.62560159  0.73518316  1
  C  C152  1  0.75930902  0.70162085  0.68441894  1
  C  C153  1  0.76024552  0.66830515  0.62002566  1
  C  C154  1  0.75963326  0.64484853  0.27035466  1
  C  C155  1  0.75918750  0.66995874  0.20602283  1
  S  S156  1  0.26182893  0.20007853  0.55760507  1
  S  S157  1  0.19944945  0.73802848  0.55754850  1
  S  S158  1  0.80032616  0.23968881  0.44242666  1
  S  S159  1  0.76060274  0.80113007  0.44243328  1
  I  I160  1  0.24568757  0.92661427  0.99591196  1
  I  I161  1  0.26159446  0.55962758  0.00205561  1
  I  I162  1  0.74650697  0.05617568  0.00116164  1
  I  I163  1  0.76185663  0.42818380  -0.00063890  1
  I  I164  1  0.07300282  0.24114471  0.00166470  1
  I  I165  1  0.94200492  0.74151380  0.99651385  1
  I  I166  1  0.44523446  0.25259093  0.99952729  1
  I  I167  1  0.57264389  0.75338039  0.00341935  1
  I  I168  1  0.98739743  0.00496712  0.84869610  1
  I  I169  1  0.00585525  0.99929542  0.15001262  1
  I  I170  1  0.00629538  0.49211998  0.84995735  1
  I  I171  1  0.00594677  0.50895702  0.15081193  1
  I  I172  1  0.49801574  0.98841555  0.84990565  1
  I  I173  1  0.48636057  0.00204267  0.15082937  1
  I  I174  1  0.50576794  0.50070938  0.84995988  1
  I  I175  1  0.51617437  0.49432582  0.14977242  1
  N  N176  1  0.26815499  0.19118054  0.87920784  1
  N  N177  1  0.27055965  0.18992153  0.12415208  1
  N  N178  1  0.19140078  0.72915227  0.87897878  1
  N  N179  1  0.18906388  0.73244825  0.12413102  1
  N  N180  1  0.80710845  0.24218998  0.12041357  1
  N  N181  1  0.80883671  0.24022461  0.87643674  1
  N  N182  1  0.76179327  0.80643356  0.12036943  1
  N  N183  1  0.75697681  0.81081785  0.87619701  1
