# generated using pymatgen
data_H22PbC24(I2N)2
_symmetry_space_group_name_H-M   'P 1'
_cell_length_a   12.64995451
_cell_length_b   12.64979576
_cell_length_c   23.57952884
_cell_angle_alpha   89.85319775
_cell_angle_beta   89.85572816
_cell_angle_gamma   89.99023094
_symmetry_Int_Tables_number   1
_chemical_formula_structural   H22PbC24(I2N)2
_chemical_formula_sum   'H88 Pb4 C96 I16 N8'
_cell_volume   3773.15626762
_cell_formula_units_Z   4
loop_
 _symmetry_equiv_pos_site_id
 _symmetry_equiv_pos_as_xyz
  1  'x, y, z'
loop_
 _atom_site_type_symbol
 _atom_site_label
 _atom_site_symmetry_multiplicity
 _atom_site_fract_x
 _atom_site_fract_y
 _atom_site_fract_z
 _atom_site_occupancy
  H  H0  1  0.28230167  0.18357306  0.91485079  1
  H  H1  1  0.17102943  0.25197704  0.91243985  1
  H  H2  1  0.28466825  0.31661145  0.91431415  1
  H  H3  1  0.16823659  0.39937789  0.82872132  1
  H  H4  1  0.16471576  0.39779396  0.72479715  1
  H  H5  1  0.27643671  0.08118434  0.64364485  1
  H  H6  1  0.28134296  0.08217752  0.54076023  1
  H  H7  1  0.28119348  0.41774334  0.45868225  1
  H  H8  1  0.27603513  0.41878265  0.35582353  1
  H  H9  1  0.33547616  0.39827929  0.27425765  1
  H  H10  1  0.33159574  0.40008768  0.17026920  1
  H  H11  1  0.24524091  0.32372948  0.08380100  1
  H  H12  1  0.19015256  0.20344253  0.08628309  1
  H  H13  1  0.32015429  0.21515224  0.08723538  1
  H  H14  1  0.16737572  0.10152027  0.17088288  1
  H  H15  1  0.16400034  0.10250119  0.27482050  1
  H  H16  1  0.22359861  0.08170413  0.35612857  1
  H  H17  1  0.21845140  0.08227457  0.45898268  1
  H  H18  1  0.21846677  0.41763785  0.54061408  1
  H  H19  1  0.22388350  0.41825984  0.64343596  1
  H  H20  1  0.33612193  0.10193027  0.72521322  1
  H  H21  1  0.33246723  0.10075046  0.82923264  1
  H  H22  1  0.18360007  0.71809107  0.91504968  1
  H  H23  1  0.25253682  0.82895775  0.91233260  1
  H  H24  1  0.31661411  0.71487749  0.91423983  1
  H  H25  1  0.39930601  0.83185304  0.82853542  1
  H  H26  1  0.39781172  0.83532755  0.72459601  1
  H  H27  1  0.08120942  0.72358104  0.64369440  1
  H  H28  1  0.08225043  0.71866502  0.54082646  1
  H  H29  1  0.41781072  0.71881080  0.45875333  1
  H  H30  1  0.41880192  0.72394482  0.35588075  1
  H  H31  1  0.39833530  0.66444967  0.27447614  1
  H  H32  1  0.40005547  0.66828984  0.17047192  1
  H  H33  1  0.32390821  0.75500137  0.08391386  1
  H  H34  1  0.20334779  0.80963336  0.08611480  1
  H  H35  1  0.21557062  0.67980320  0.08729080  1
  H  H36  1  0.10145466  0.83255175  0.17068139  1
  H  H37  1  0.10252305  0.83595198  0.27460753  1
  H  H38  1  0.08171429  0.77638678  0.35607676  1
  H  H39  1  0.08232708  0.78155902  0.45891674  1
  H  H40  1  0.41768834  0.78153836  0.54055365  1
  H  H41  1  0.41826617  0.77613658  0.64339126  1
  H  H42  1  0.10198577  0.66394833  0.72543244  1
  H  H43  1  0.10071711  0.66764535  0.82943418  1
  H  H44  1  0.81664838  0.21699959  0.08527450  1
  H  H45  1  0.74867008  0.32862291  0.08756051  1
  H  H46  1  0.68366365  0.21528524  0.08559290  1
  H  H47  1  0.60081937  0.33162957  0.17121656  1
  H  H48  1  0.60228363  0.33525886  0.27512267  1
  H  H49  1  0.91882649  0.22357444  0.35637183  1
  H  H50  1  0.91782684  0.21866493  0.45925165  1
  H  H51  1  0.58225759  0.21881370  0.54131159  1
  H  H52  1  0.58121653  0.22397656  0.64416562  1
  H  H53  1  0.60163194  0.16449589  0.72564834  1
  H  H54  1  0.59968113  0.16829284  0.82965380  1
  H  H55  1  0.67589580  0.25482126  0.91610865  1
  H  H56  1  0.79658503  0.30910846  0.91377605  1
  H  H57  1  0.78400805  0.17931923  0.91279736  1
  H  H58  1  0.89823727  0.33252792  0.82919068  1
  H  H59  1  0.89741167  0.33597572  0.72526703  1
  H  H60  1  0.91829052  0.27641104  0.64388466  1
  H  H61  1  0.91772450  0.28155615  0.54102595  1
  H  H62  1  0.58236833  0.28154079  0.45938179  1
  H  H63  1  0.58175210  0.27612546  0.35655634  1
  H  H64  1  0.89815836  0.16387174  0.27487919  1
  H  H65  1  0.89948613  0.16747425  0.17084945  1
  H  H66  1  0.78256562  0.81666560  0.08507085  1
  H  H67  1  0.67139000  0.74813619  0.08768331  1
  H  H68  1  0.78511430  0.68366559  0.08564685  1
  H  H69  1  0.66825385  0.60091624  0.17141045  1
  H  H70  1  0.66468936  0.60227429  0.27533364  1
  H  H71  1  0.77641126  0.91880228  0.35631855  1
  H  H72  1  0.78133033  0.91775298  0.45918268  1
  H  H73  1  0.78118460  0.58218821  0.54124945  1
  H  H74  1  0.77604623  0.58118823  0.64411818  1
  H  H75  1  0.83556669  0.60157580  0.72544180  1
  H  H76  1  0.83179124  0.59969889  0.82946102  1
  H  H77  1  0.74493450  0.67571297  0.91597841  1
  H  H78  1  0.69108713  0.79664635  0.91396014  1
  H  H79  1  0.82074736  0.78356483  0.91273918  1
  H  H80  1  0.66757624  0.89832768  0.82938557  1
  H  H81  1  0.66408149  0.89740513  0.72547641  1
  H  H82  1  0.72360800  0.91828070  0.64393138  1
  H  H83  1  0.71843805  0.91767493  0.54108694  1
  H  H84  1  0.71845537  0.58231028  0.45945215  1
  H  H85  1  0.72385671  0.58174291  0.35660906  1
  H  H86  1  0.83607694  0.89809999  0.27466349  1
  H  H87  1  0.83245380  0.89950469  0.17064699  1
  Pb  Pb88  1  1.00050867  0.99890841  0.99015568  1
  Pb  Pb89  1  0.00089119  0.49940906  0.00882278  1
  Pb  Pb90  1  0.50109315  -0.00043711  0.00885411  1
  Pb  Pb91  1  0.50046630  0.49913453  0.99206974  1
  C  C92  1  0.25019007  0.25006628  0.83448733  1
  C  C93  1  0.20502995  0.33441418  0.80563129  1
  C  C94  1  0.20389079  0.33285926  0.74670413  1
  C  C95  1  0.25044641  0.24976453  0.71577371  1
  C  C96  1  0.25022972  0.24970949  0.65293312  1
  C  C97  1  0.26584556  0.15631989  0.62164114  1
  C  C98  1  0.26671887  0.15658821  0.56263694  1
  C  C99  1  0.24990614  0.24990699  0.53116531  1
  C  C100  1  0.24985694  0.24999330  0.46835089  1
  C  C101  1  0.26656817  0.34333838  0.43684477  1
  C  C102  1  0.26556529  0.34363231  0.37784869  1
  C  C103  1  0.24988748  0.25026884  0.34659450  1
  C  C104  1  0.24976300  0.25042338  0.28376227  1
  C  C105  1  0.29621494  0.33340842  0.25251098  1
  C  C106  1  0.29473778  0.33511538  0.19349956  1
  C  C107  1  0.24900514  0.25094232  0.16506963  1
  C  C108  1  0.20392990  0.16654406  0.19393672  1
  C  C109  1  0.20296782  0.16765950  0.25290797  1
  C  C110  1  0.23416068  0.15675180  0.37802080  1
  C  C111  1  0.23313616  0.15678739  0.43701871  1
  C  C112  1  0.23320451  0.34313040  0.56253379  1
  C  C113  1  0.23437877  0.34319244  0.62152527  1
  C  C114  1  0.29709021  0.16706543  0.74696343  1
  C  C115  1  0.29580886  0.16578788  0.80603212  1
  C  C116  1  0.25002249  0.74993911  0.83449835  1
  C  C117  1  0.33435714  0.79509465  0.80551947  1
  C  C118  1  0.33284327  0.79619881  0.74658870  1
  C  C119  1  0.24977711  0.74962583  0.71578188  1
  C  C120  1  0.24972827  0.74980041  0.65293813  1
  C  C121  1  0.15635393  0.73417435  0.62167614  1
  C  C122  1  0.15664302  0.73329859  0.56267611  1
  C  C123  1  0.24996812  0.75011728  0.53117003  1
  C  C124  1  0.25005440  0.75015557  0.46835427  1
  C  C125  1  0.34339037  0.73343422  0.43688654  1
  C  C126  1  0.34366363  0.73442135  0.37788806  1
  C  C127  1  0.25028077  0.75009819  0.34659734  1
  C  C128  1  0.25044488  0.75017278  0.28376437  1
  C  C129  1  0.33342200  0.70369916  0.25263874  1
  C  C130  1  0.33510922  0.70514107  0.19362707  1
  C  C131  1  0.25090503  0.75090106  0.16507315  1
  C  C132  1  0.16650360  0.79594707  0.19381045  1
  C  C133  1  0.16764774  0.79694981  0.25278287  1
  C  C134  1  0.15677809  0.76583404  0.37798746  1
  C  C135  1  0.15683197  0.76687269  0.43698294  1
  C  C136  1  0.34317311  0.76681529  0.56250197  1
  C  C137  1  0.34321453  0.76564302  0.62149787  1
  C  C138  1  0.16707218  0.70300832  0.74709519  1
  C  C139  1  0.16575886  0.70432442  0.80616421  1
  C  C140  1  0.75014158  0.24959580  0.16552548  1
  C  C141  1  0.66574944  0.29479945  0.19432554  1
  C  C142  1  0.66723280  0.29602736  0.25325553  1
  C  C143  1  0.75028241  0.24950610  0.28423324  1
  C  C144  1  0.75030152  0.24977013  0.34707300  1
  C  C145  1  0.84369004  0.23416177  0.37837168  1
  C  C146  1  0.84341733  0.23328902  0.43737270  1
  C  C147  1  0.75009623  0.25010079  0.46883754  1
  C  C148  1  0.75000617  0.25014898  0.53165148  1
  C  C149  1  0.65666450  0.23343930  0.56314978  1
  C  C150  1  0.65636180  0.23444139  0.62214458  1
  C  C151  1  0.74972809  0.25011219  0.65340431  1
  C  C152  1  0.74950928  0.25017864  0.71623626  1
  C  C153  1  0.66648909  0.20371214  0.74743586  1
  C  C154  1  0.66466357  0.20510065  0.80644102  1
  C  C155  1  0.74883906  0.25080674  0.83492053  1
  C  C156  1  0.83324390  0.29590244  0.80611209  1
  C  C157  1  0.83224555  0.29695303  0.74713878  1
  C  C158  1  0.84324272  0.26584486  0.62198635  1
  C  C159  1  0.84321624  0.26687120  0.56298906  1
  C  C160  1  0.65687592  0.26680391  0.43746435  1
  C  C161  1  0.65681618  0.26562829  0.37847131  1
  C  C162  1  0.83303241  0.20283933  0.25309264  1
  C  C163  1  0.83439277  0.20405220  0.19403153  1
  C  C164  1  0.75028293  0.75019003  0.16551858  1
  C  C165  1  0.70507205  0.66581915  0.19444617  1
  C  C166  1  0.70388457  0.66725193  0.25337768  1
  C  C167  1  0.75043042  0.75027153  0.28423123  1
  C  C168  1  0.75020261  0.75028082  0.34707196  1
  C  C169  1  0.76581974  0.84365455  0.37833588  1
  C  C170  1  0.76669452  0.84336164  0.43733315  1
  C  C171  1  0.74987774  0.75003196  0.46883607  1
  C  C172  1  0.74984020  0.74994517  0.53165069  1
  C  C173  1  0.76655986  0.65660793  0.56311561  1
  C  C174  1  0.76557298  0.65632749  0.62211223  1
  C  C175  1  0.74990252  0.74971053  0.65340420  1
  C  C176  1  0.74988055  0.74950124  0.71623654  1
  C  C177  1  0.79637528  0.66647619  0.74731482  1
  C  C178  1  0.79500331  0.66468580  0.80632061  1
  C  C179  1  0.74929162  0.74886717  0.83492071  1
  C  C180  1  0.70421968  0.83331079  0.80623830  1
  C  C181  1  0.70313658  0.83226342  0.74726338  1
  C  C182  1  0.73416151  0.84321814  0.62201811  1
  C  C183  1  0.73312229  0.84316926  0.56302211  1
  C  C184  1  0.73317816  0.65682701  0.43750336  1
  C  C185  1  0.73435223  0.65679062  0.37850616  1
  C  C186  1  0.79707039  0.83302647  0.25296444  1
  C  C187  1  0.79583274  0.83442343  0.19390298  1
  I  I188  1  0.25145711  0.03799621  0.99738110  1
  I  I189  1  0.25112346  0.45863226  0.00193697  1
  I  I190  1  0.75150874  0.95898653  0.00091126  1
  I  I191  1  0.75126136  0.53909356  0.99959342  1
  I  I192  1  0.96184424  0.24844129  0.00069507  1
  I  I193  1  0.04082782  0.74841812  0.99759832  1
  I  I194  1  0.54175014  0.24880451  0.99941820  1
  I  I195  1  0.46117012  0.74897788  0.00225976  1
  I  I196  1  0.99456570  0.00052888  0.86012186  1
  I  I197  1  0.00224005  -0.00004642  0.12498308  1
  I  I198  1  0.00002028  0.49768065  0.87424153  1
  I  I199  1  0.99957977  0.50487352  0.13896821  1
  I  I200  1  0.50013656  0.99773168  0.87425929  1
  I  I201  1  0.49887427  0.00568430  0.13896883  1
  I  I202  1  0.49494525  0.50098115  0.86186646  1
  I  I203  1  0.50232003  0.49988741  0.12647956  1
  N  N204  1  0.24773676  0.25055546  0.89713921  1
  N  N205  1  0.25105119  0.24872822  0.10244718  1
  N  N206  1  0.25073166  0.75229139  0.89714451  1
  N  N207  1  0.24890591  0.74892513  0.10245530  1
  N  N208  1  0.74985354  0.25194193  0.10287133  1
  N  N209  1  0.75082783  0.24860545  0.89754035  1
  N  N210  1  0.74802670  0.74969855  0.10287431  1
  N  N211  1  0.75141640  0.75065919  0.89754386  1
