# generated using pymatgen
data_H18PbC20S2(I2N)2
_symmetry_space_group_name_H-M   'P 1'
_cell_length_a   12.25498574
_cell_length_b   12.25469200
_cell_length_c   22.61296215
_cell_angle_alpha   90.86172807
_cell_angle_beta   90.85906337
_cell_angle_gamma   88.85331248
_symmetry_Int_Tables_number   1
_chemical_formula_structural   H18PbC20S2(I2N)2
_chemical_formula_sum   'H72 Pb4 C80 S8 I16 N8'
_cell_volume   3394.60821021
_cell_formula_units_Z   4
loop_
 _symmetry_equiv_pos_site_id
 _symmetry_equiv_pos_as_xyz
  1  'x, y, z'
loop_
 _atom_site_type_symbol
 _atom_site_label
 _atom_site_symmetry_multiplicity
 _atom_site_fract_x
 _atom_site_fract_y
 _atom_site_fract_z
 _atom_site_occupancy
  H  H0  1  0.30967145  0.29297131  0.90818554  1
  H  H1  1  0.17356228  0.31860309  0.89712397  1
  H  H2  1  0.22339224  0.19024429  0.91257134  1
  H  H3  1  0.24493162  0.06596769  0.83192759  1
  H  H4  1  0.25118331  0.03729703  0.72395888  1
  H  H5  1  0.24908041  0.01847744  0.62488191  1
  H  H6  1  0.24860993  0.04998160  0.51115181  1
  H  H7  1  0.25628941  0.44950641  0.48867409  1
  H  H8  1  0.25318677  0.48122371  0.37495473  1
  H  H9  1  0.24274694  0.46295045  0.27606177  1
  H  H10  1  0.24267692  0.43522539  0.16804618  1
  H  H11  1  0.32012487  0.19216122  0.10064118  1
  H  H12  1  0.25147974  0.31229612  0.08622212  1
  H  H13  1  0.18287340  0.19629632  0.09346731  1
  H  H14  1  0.24324445  0.08658943  0.19084412  1
  H  H15  1  0.24632593  0.11233317  0.29881045  1
  H  H16  1  0.25539118  0.38760651  0.70069699  1
  H  H17  1  0.25198098  0.41420693  0.80859809  1
  H  H18  1  0.30699787  0.67893843  0.89927055  1
  H  H19  1  0.30471061  0.81610224  0.90671133  1
  H  H20  1  0.18773458  0.74912686  0.91397568  1
  H  H21  1  0.06482730  0.75337131  0.83203609  1
  H  H22  1  0.03716802  0.75348553  0.72402267  1
  H  H23  1  0.01862868  0.75324856  0.62517676  1
  H  H24  1  0.05029156  0.74928042  0.51146922  1
  H  H25  1  0.45006263  0.74593970  0.48889057  1
  H  H26  1  0.48160869  0.74437769  0.37516327  1
  H  H27  1  0.46259173  0.75298382  0.27630680  1
  H  H28  1  0.43413230  0.75919739  0.16832571  1
  H  H29  1  0.20641876  0.69084867  0.09183501  1
  H  H30  1  0.31013038  0.77595389  0.08742584  1
  H  H31  1  0.18222886  0.82711814  0.10310360  1
  H  H32  1  0.08625074  0.74344156  0.19121470  1
  H  H33  1  0.11266658  0.73887176  0.29913688  1
  H  H34  1  0.38757349  0.75911323  0.70138865  1
  H  H35  1  0.41323800  0.76101133  0.80936891  1
  H  H36  1  0.70711332  0.19008937  0.09184717  1
  H  H37  1  0.68098866  0.32608875  0.10289609  1
  H  H38  1  0.80954097  0.27673209  0.08745032  1
  H  H39  1  0.93392395  0.25511885  0.16807058  1
  H  H40  1  0.96264525  0.24891724  0.27603729  1
  H  H41  1  0.98150534  0.25087877  0.37511768  1
  H  H42  1  0.95002180  0.25132812  0.48884866  1
  H  H43  1  0.55051898  0.24376513  0.51134740  1
  H  H44  1  0.51883387  0.24684689  0.62506898  1
  H  H45  1  0.53715347  0.25727145  0.72396060  1
  H  H46  1  0.56493228  0.25735982  0.83197382  1
  H  H47  1  0.80813202  0.18002930  0.89937209  1
  H  H48  1  0.68794031  0.24858624  0.91378607  1
  H  H49  1  0.80392775  0.31724566  0.90646341  1
  H  H50  1  0.91354569  0.25674094  0.80911098  1
  H  H51  1  0.88775200  0.25357166  0.70115331  1
  H  H52  1  0.61236512  0.24451004  0.29935129  1
  H  H53  1  0.58571808  0.24781408  0.19145274  1
  H  H54  1  0.82091852  0.69271280  0.10070831  1
  H  H55  1  0.68378655  0.69504422  0.09336793  1
  H  H56  1  0.75079990  0.81202341  0.08602460  1
  H  H57  1  0.74659237  0.93501352  0.16795234  1
  H  H58  1  0.74648044  0.96273988  0.27596469  1
  H  H59  1  0.74671503  0.98131201  0.37481251  1
  H  H60  1  0.75065747  0.94968902  0.48852295  1
  H  H61  1  0.75409617  0.54992068  0.51110853  1
  H  H62  1  0.75564356  0.51839618  0.62483790  1
  H  H63  1  0.74690181  0.53743072  0.72369555  1
  H  H64  1  0.74074092  0.56594317  0.83167754  1
  H  H65  1  0.80939573  0.79340736  0.90815536  1
  H  H66  1  0.72387881  0.69003404  0.91254833  1
  H  H67  1  0.67324862  0.81816904  0.89689098  1
  H  H68  1  0.75680395  0.91379811  0.80875330  1
  H  H69  1  0.76122269  0.88734157  0.70083443  1
  H  H70  1  0.74099081  0.61234090  0.29865172  1
  H  H71  1  0.73904086  0.58661109  0.19067806  1
  Pb  Pb72  1  -0.00069149  0.99897474  0.99854305  1
  Pb  Pb73  1  0.00055902  0.50122020  0.00151023  1
  Pb  Pb74  1  0.50148633  1.00140925  0.00156549  1
  Pb  Pb75  1  0.49809287  0.49904878  0.99830235  1
  C  C76  1  0.24760984  0.24173649  0.82592855  1
  C  C77  1  0.24784698  0.13588454  0.80277698  1
  C  C78  1  0.25114900  0.12050627  0.74162413  1
  C  C79  1  0.25312055  0.21024440  0.70323099  1
  C  C80  1  0.25306652  0.19503531  0.63899295  1
  C  C81  1  0.25078354  0.09920093  0.60549599  1
  C  C82  1  0.25027544  0.11604381  0.54390825  1
  C  C83  1  0.25194993  0.22564160  0.52880640  1
  C  C84  1  0.25124926  0.27391968  0.47096098  1
  C  C85  1  0.25340252  0.38351105  0.45589386  1
  C  C86  1  0.25140603  0.40048326  0.39433002  1
  C  C87  1  0.24757478  0.30475793  0.36080422  1
  C  C88  1  0.24493645  0.28982554  0.29655782  1
  C  C89  1  0.24320446  0.37982422  0.25827163  1
  C  C90  1  0.24287352  0.36492800  0.19703701  1
  C  C91  1  0.24317222  0.25920711  0.17372065  1
  C  C92  1  0.24326220  0.16851416  0.21003010  1
  C  C93  1  0.24433089  0.18422578  0.27093019  1
  C  C94  1  0.25418066  0.31596652  0.72871767  1
  C  C95  1  0.25162563  0.33213391  0.78955650  1
  C  C96  1  0.24071770  0.75717676  0.82642971  1
  C  C97  1  0.13506851  0.75528094  0.80307196  1
  C  C98  1  0.12022013  0.75518289  0.74183909  1
  C  C99  1  0.21019748  0.75603911  0.70357257  1
  C  C100  1  0.19527917  0.75381539  0.63931832  1
  C  C101  1  0.09944409  0.75261435  0.60580275  1
  C  C102  1  0.11636732  0.75032214  0.54422823  1
  C  C103  1  0.22603828  0.74956716  0.52913704  1
  C  C104  1  0.27428563  0.74767061  0.47126507  1
  C  C105  1  0.38394402  0.74623996  0.45614390  1
  C  C106  1  0.40080531  0.74525822  0.39455540  1
  C  C107  1  0.30492147  0.74570254  0.36106482  1
  C  C108  1  0.28980672  0.74595122  0.29681608  1
  C  C109  1  0.37952875  0.75066330  0.25853122  1
  C  C110  1  0.36427763  0.75409395  0.19738218  1
  C  C111  1  0.25855696  0.75197535  0.17409966  1
  C  C112  1  0.16822132  0.74554692  0.21036006  1
  C  C113  1  0.18427361  0.74255102  0.27120009  1
  C  C114  1  0.31568358  0.75879239  0.72924690  1
  C  C115  1  0.33135875  0.75938859  0.79015420  1
  C  C116  1  0.75815733  0.25234583  0.17409775  1
  C  C117  1  0.86402489  0.25218664  0.19723020  1
  C  C118  1  0.87943450  0.24890600  0.25838208  1
  C  C119  1  0.78971580  0.24689466  0.29678858  1
  C  C120  1  0.80494760  0.24696249  0.36102007  1
  C  C121  1  0.90078937  0.24922593  0.39450581  1
  C  C122  1  0.88395858  0.24971744  0.45609501  1
  C  C123  1  0.77436725  0.24804973  0.47120420  1
  C  C124  1  0.72610594  0.24872112  0.52904606  1
  C  C125  1  0.61652311  0.24658495  0.54412364  1
  C  C126  1  0.59957334  0.24856557  0.60568755  1
  C  C127  1  0.69530140  0.25236587  0.63919969  1
  C  C128  1  0.71026062  0.25501614  0.70343906  1
  C  C129  1  0.62028620  0.25680188  0.74174075  1
  C  C130  1  0.63521859  0.25714096  0.80297240  1
  C  C131  1  0.74094832  0.25681537  0.82626652  1
  C  C132  1  0.83162308  0.25670905  0.78993793  1
  C  C133  1  0.81586971  0.25559498  0.72904649  1
  C  C134  1  0.68399126  0.24575770  0.27131939  1
  C  C135  1  0.66779324  0.24825977  0.21048430  1
  C  C136  1  0.74284658  0.75911867  0.17358751  1
  C  C137  1  0.74471206  0.86479271  0.19692688  1
  C  C138  1  0.74481131  0.87967822  0.25815649  1
  C  C139  1  0.74399964  0.78971927  0.29643823  1
  C  C140  1  0.74621385  0.80465773  0.36068290  1
  C  C141  1  0.74739292  0.90051000  0.39419032  1
  C  C142  1  0.74966551  0.88360299  0.45576938  1
  C  C143  1  0.75042562  0.77393276  0.47086442  1
  C  C144  1  0.75229713  0.72570211  0.52873274  1
  C  C145  1  0.75373866  0.61604401  0.54385489  1
  C  C146  1  0.75470266  0.59918769  0.60544351  1
  C  C147  1  0.75423470  0.69508539  0.63893092  1
  C  C148  1  0.75402103  0.71020499  0.70317441  1
  C  C149  1  0.74927848  0.62050473  0.74146369  1
  C  C150  1  0.74587194  0.63578785  0.80261564  1
  C  C151  1  0.74807983  0.74150689  0.82588378  1
  C  C152  1  0.75460076  0.83183327  0.78961650  1
  C  C153  1  0.75751902  0.81574918  0.72877452  1
  C  C154  1  0.74128741  0.68421047  0.27078383  1
  C  C155  1  0.74066142  0.66850122  0.20988081  1
  S  S156  1  0.24664130  0.19282694  0.40733881  1
  S  S157  1  0.25442028  0.30688259  0.59240615  1
  S  S158  1  0.19299035  0.74766588  0.40766505  1
  S  S159  1  0.30726261  0.75179488  0.59275634  1
  S  S160  1  0.80721944  0.25328230  0.59265630  1
  S  S161  1  0.69310999  0.24562235  0.40761485  1
  S  S162  1  0.75226117  0.80701316  0.59233001  1
  S  S163  1  0.74823325  0.69268612  0.40725000  1
  I  I164  1  0.24841189  0.01513770  0.97202239  1
  I  I165  1  0.25038156  0.49652715  0.03480332  1
  I  I166  1  0.75148751  0.99639425  0.03477865  1
  I  I167  1  0.74738276  0.51514199  0.97202112  1
  I  I168  1  0.98491282  0.25205494  0.02810869  1
  I  I169  1  0.00347568  0.74903412  0.96533433  1
  I  I170  1  0.50354353  0.24912942  0.96506309  1
  I  I171  1  0.48479962  0.75218643  0.02783791  1
  I  I172  1  0.94889200  0.03093847  0.86349570  1
  I  I173  1  0.05013077  0.97530145  0.13527378  1
  I  I174  1  0.02365717  0.45044845  0.86481937  1
  I  I175  1  0.96825208  0.55195394  0.13662831  1
  I  I176  1  0.52622188  0.95174592  0.86475037  1
  I  I177  1  0.47034796  0.05303710  0.13657959  1
  I  I178  1  0.44629002  0.53070016  0.86322071  1
  I  I179  1  0.54779967  0.47501076  0.13502151  1
  N  N180  1  0.23818921  0.26182333  0.88990789  1
  N  N181  1  0.24937940  0.23944757  0.10948954  1
  N  N182  1  0.26054211  0.75037404  0.89062772  1
  N  N183  1  0.23845029  0.76185497  0.11015826  1
  N  N184  1  0.73802477  0.26168841  0.11011632  1
  N  N185  1  0.76077098  0.25069907  0.89049818  1
  N  N186  1  0.74955850  0.73924491  0.10938917  1
  N  N187  1  0.73825878  0.76165273  0.88982866  1
