# generated using pymatgen
data_H18PbC20(I2N)2
_symmetry_space_group_name_H-M   'P 1'
_cell_length_a   12.51470116
_cell_length_b   12.51449190
_cell_length_c   19.03439065
_cell_angle_alpha   90.22496706
_cell_angle_beta   90.23011722
_cell_angle_gamma   89.99217371
_symmetry_Int_Tables_number   1
_chemical_formula_structural   H18PbC20(I2N)2
_chemical_formula_sum   'H72 Pb4 C80 I16 N8'
_cell_volume   2981.02645213
_cell_formula_units_Z   4
loop_
 _symmetry_equiv_pos_site_id
 _symmetry_equiv_pos_as_xyz
  1  'x, y, z'
loop_
 _atom_site_type_symbol
 _atom_site_label
 _atom_site_symmetry_multiplicity
 _atom_site_fract_x
 _atom_site_fract_y
 _atom_site_fract_z
 _atom_site_occupancy
  H  H0  1  0.19068591  0.24558224  0.89683774  1
  H  H1  1  0.32102300  0.27737254  0.89799085  1
  H  H2  1  0.22747681  0.37196758  0.89409642  1
  H  H3  1  0.22526237  0.46605857  0.79242902  1
  H  H4  1  0.21597752  0.46713526  0.66254652  1
  H  H5  1  0.21773641  0.36874711  0.55072974  1
  H  H6  1  0.21226920  0.03055605  0.45075311  1
  H  H7  1  0.20941473  0.02835374  0.32190526  1
  H  H8  1  0.22423170  0.12420615  0.20754607  1
  H  H9  1  0.16906325  0.29373783  0.10412895  1
  H  H10  1  0.28742977  0.23244697  0.10323086  1
  H  H11  1  0.28306593  0.36436485  0.10594793  1
  H  H12  1  0.27258503  0.46573365  0.20854395  1
  H  H13  1  0.28460606  0.46685837  0.33838512  1
  H  H14  1  0.28288914  0.36857444  0.44994977  1
  H  H15  1  0.28625043  0.03036342  0.54848168  1
  H  H16  1  0.28978308  0.02843838  0.67729868  1
  H  H17  1  0.27363717  0.12455817  0.79231201  1
  H  H18  1  0.24529739  0.80992568  0.89682638  1
  H  H19  1  0.27801233  0.67981325  0.89784061  1
  H  H20  1  0.37196081  0.77406294  0.89397423  1
  H  H21  1  0.46617361  0.77453782  0.79240847  1
  H  H22  1  0.46715520  0.78374059  0.66258362  1
  H  H23  1  0.36865984  0.78219218  0.55082511  1
  H  H24  1  0.03045902  0.78769307  0.45087271  1
  H  H25  1  0.02828197  0.79061039  0.32205289  1
  H  H26  1  0.12412584  0.77576323  0.20760420  1
  H  H27  1  0.29355264  0.83040037  0.10427144  1
  H  H28  1  0.23191650  0.71229452  0.10312933  1
  H  H29  1  0.36397409  0.71621672  0.10566769  1
  H  H30  1  0.46563742  0.72719409  0.20836647  1
  H  H31  1  0.46678737  0.71539746  0.33815121  1
  H  H32  1  0.36849220  0.71712804  0.44974775  1
  H  H33  1  0.03026103  0.71379863  0.54830231  1
  H  H34  1  0.02844548  0.71031926  0.67711094  1
  H  H35  1  0.12461671  0.72672436  0.79219007  1
  H  H36  1  0.75750231  0.29814939  0.10259208  1
  H  H37  1  0.71888104  0.17000998  0.10323418  1
  H  H38  1  0.62898804  0.26869237  0.10534152  1
  H  H39  1  0.53370537  0.27289478  0.20744278  1
  H  H40  1  0.53295830  0.28423423  0.33731535  1
  H  H41  1  0.63144642  0.28167171  0.44925245  1
  H  H42  1  0.96973855  0.28471727  0.54906294  1
  H  H43  1  0.97199598  0.28837750  0.67789804  1
  H  H44  1  0.87623077  0.27161598  0.79254058  1
  H  H45  1  0.70710780  0.32180004  0.89755161  1
  H  H46  1  0.76646244  0.20193669  0.89602336  1
  H  H47  1  0.63503916  0.20904111  0.89269922  1
  H  H48  1  0.53441548  0.22587440  0.79121648  1
  H  H49  1  0.53302862  0.21593048  0.66136593  1
  H  H50  1  0.63130631  0.21656593  0.54999564  1
  H  H51  1  0.96940664  0.21073157  0.45133210  1
  H  H52  1  0.97121137  0.20792450  0.32249433  1
  H  H53  1  0.87497005  0.22239941  0.20777563  1
  H  H54  1  0.70159296  0.75820877  0.10248840  1
  H  H55  1  0.82946843  0.71878586  0.10344245  1
  H  H56  1  0.73030573  0.62939010  0.10511144  1
  H  H57  1  0.72684175  0.53379171  0.20728162  1
  H  H58  1  0.71580572  0.53302731  0.33710887  1
  H  H59  1  0.71836141  0.63153016  0.44906771  1
  H  H60  1  0.71534632  0.96985722  0.54888954  1
  H  H61  1  0.71168303  0.97200796  0.67771233  1
  H  H62  1  0.72871052  0.87619972  0.79241939  1
  H  H63  1  0.67927127  0.70687148  0.89747741  1
  H  H64  1  0.79885564  0.76662719  0.89594639  1
  H  H65  1  0.79237512  0.63511611  0.89263703  1
  H  H66  1  0.77387494  0.53429907  0.79121703  1
  H  H67  1  0.78377043  0.53298286  0.66143261  1
  H  H68  1  0.78337502  0.63136319  0.55010941  1
  H  H69  1  0.78924625  0.96948330  0.45146879  1
  H  H70  1  0.79211242  0.97126063  0.32265777  1
  H  H71  1  0.77757412  0.87502004  0.20784968  1
  Pb  Pb72  1  1.00026187  0.00007667  0.00212459  1
  Pb  Pb73  1  1.00018927  0.49964104  0.00653072  1
  Pb  Pb74  1  0.50024295  0.99959586  0.00650834  1
  Pb  Pb75  1  0.50028362  0.49923380  0.98742571  1
  C  C76  1  0.24828737  0.29463144  0.79801257  1
  C  C77  1  0.23406491  0.39222806  0.76263828  1
  C  C78  1  0.22904421  0.39228049  0.69044295  1
  C  C79  1  0.24107921  0.29585420  0.65174385  1
  C  C80  1  0.23580227  0.29384122  0.57742966  1
  C  C81  1  0.25175166  0.20058229  0.53895187  1
  C  C82  1  0.24838286  0.20050749  0.46097685  1
  C  C83  1  0.22776307  0.10444373  0.42250978  1
  C  C84  1  0.22523138  0.10271827  0.35016080  1
  C  C85  1  0.24100560  0.19754586  0.31100559  1
  C  C86  1  0.23799557  0.19844675  0.23650955  1
  C  C87  1  0.25023385  0.29415304  0.20245415  1
  C  C88  1  0.26521331  0.39190230  0.23807783  1
  C  C89  1  0.27156754  0.39188078  0.31023837  1
  C  C90  1  0.25974133  0.29552670  0.34860125  1
  C  C91  1  0.26483936  0.29364696  0.42290706  1
  C  C92  1  0.27192081  0.10452405  0.57706340  1
  C  C93  1  0.27485692  0.10298459  0.64939787  1
  C  C94  1  0.25959005  0.19795395  0.68901401  1
  C  C95  1  0.26153885  0.19888713  0.76354784  1
  C  C96  1  0.29471998  0.75193749  0.79794146  1
  C  C97  1  0.39231165  0.76582410  0.76260240  1
  C  C98  1  0.39231866  0.77073982  0.69043519  1
  C  C99  1  0.29584427  0.75882690  0.65171968  1
  C  C100  1  0.29376873  0.76413275  0.57744038  1
  C  C101  1  0.20048856  0.74821670  0.53889644  1
  C  C102  1  0.20042092  0.75162795  0.46093381  1
  C  C103  1  0.10436597  0.77225366  0.42256485  1
  C  C104  1  0.10265765  0.77482779  0.35022479  1
  C  C105  1  0.19748627  0.75908507  0.31099409  1
  C  C106  1  0.19837280  0.76203170  0.23651253  1
  C  C107  1  0.29403954  0.74962748  0.20237094  1
  C  C108  1  0.39180756  0.73469247  0.23792595  1
  C  C109  1  0.39181032  0.72847897  0.31006382  1
  C  C110  1  0.29547314  0.74033295  0.34849875  1
  C  C111  1  0.29357537  0.73520176  0.42278433  1
  C  C112  1  0.10445752  0.72807477  0.57692906  1
  C  C113  1  0.10297174  0.72515856  0.64925527  1
  C  C114  1  0.19797009  0.74039070  0.68892187  1
  C  C115  1  0.19893871  0.73862342  0.76345542  1
  C  C116  1  0.70510204  0.24928100  0.20196472  1
  C  C117  1  0.60763796  0.26497527  0.23725054  1
  C  C118  1  0.60779130  0.27106358  0.30942212  1
  C  C119  1  0.70419697  0.25869950  0.34815783  1
  C  C120  1  0.70625781  0.26355624  0.42247531  1
  C  C121  1  0.79946226  0.24688072  0.46090476  1
  C  C122  1  0.79952336  0.25030112  0.53887231  1
  C  C123  1  0.89565961  0.27046564  0.57736026  1
  C  C124  1  0.89736263  0.27351048  0.64970346  1
  C  C125  1  0.80247146  0.25853328  0.68891260  1
  C  C126  1  0.80171116  0.26020512  0.76345682  1
  C  C127  1  0.70605204  0.24734096  0.79745103  1
  C  C128  1  0.60815584  0.23411133  0.76171660  1
  C  C129  1  0.60800919  0.22888484  0.68953209  1
  C  C130  1  0.70441671  0.24026726  0.65125830  1
  C  C131  1  0.70630697  0.23461927  0.57696456  1
  C  C132  1  0.89542174  0.22623081  0.42280639  1
  C  C133  1  0.89693727  0.22375474  0.35046841  1
  C  C134  1  0.80200731  0.23974012  0.31093123  1
  C  C135  1  0.80090588  0.23660312  0.23643383  1
  C  C136  1  0.75052199  0.70520395  0.20190444  1
  C  C137  1  0.73490178  0.60771478  0.23711480  1
  C  C138  1  0.72898586  0.60785214  0.30927261  1
  C  C139  1  0.74137790  0.70424744  0.34807403  1
  C  C140  1  0.73649746  0.70632646  0.42236666  1
  C  C141  1  0.75314529  0.79953841  0.46087792  1
  C  C142  1  0.74969055  0.79960928  0.53883151  1
  C  C143  1  0.72954646  0.89573471  0.57723434  1
  C  C144  1  0.72648481  0.89738808  0.64956650  1
  C  C145  1  0.74141158  0.80245207  0.68883007  1
  C  C146  1  0.73991897  0.80168712  0.76337229  1
  C  C147  1  0.75285264  0.70597207  0.79740154  1
  C  C148  1  0.76574717  0.60808657  0.76169826  1
  C  C149  1  0.77087663  0.60795527  0.68955384  1
  C  C150  1  0.75962092  0.70442039  0.65124526  1
  C  C151  1  0.76531783  0.70635728  0.57699149  1
  C  C152  1  0.77379509  0.89548186  0.42287613  1
  C  C153  1  0.77631347  0.89698004  0.35055118  1
  C  C154  1  0.76034957  0.80205343  0.31093620  1
  C  C155  1  0.76339765  0.80095774  0.23645363  1
  I  I156  1  0.25063352  0.95481602  0.00344448  1
  I  I157  1  0.25033153  0.54233155  0.99439758  1
  I  I158  1  0.75024566  0.04320781  0.00455148  1
  I  I159  1  0.74996817  0.45586513  0.99951084  1
  I  I160  1  0.04577467  0.24997035  0.00130688  1
  I  I161  1  0.95800383  0.74958048  0.00713674  1
  I  I162  1  0.45694514  0.24945958  0.99798818  1
  I  I163  1  0.54361932  0.74904564  0.99576658  1
  I  I164  1  0.99847451  0.99864694  0.83621674  1
  I  I165  1  0.00087047  0.00116281  0.17104950  1
  I  I166  1  0.99796995  0.50290543  0.84037612  1
  I  I167  1  0.00180702  0.49689915  0.17023828  1
  I  I168  1  0.50174681  0.00145510  0.84037525  1
  I  I169  1  0.49842091  0.99847501  0.17021592  1
  I  I170  1  0.50360740  0.49930047  0.82539796  1
  I  I171  1  0.49692291  0.50070033  0.15182540  1
  N  N172  1  0.24736896  0.29671898  0.87535083  1
  N  N173  1  0.24679526  0.29618799  0.12513440  1
  N  N174  1  0.29685791  0.75347865  0.87528411  1
  N  N175  1  0.29591678  0.75270377  0.12504830  1
  N  N176  1  0.70293021  0.24600820  0.12468282  1
  N  N177  1  0.70398283  0.24573670  0.87484937  1
  N  N178  1  0.75340017  0.70317770  0.12461765  1
  N  N179  1  0.75518634  0.70391977  0.87480356  1
