# generated using pymatgen
data_H8PbC8S2(IN)4
_symmetry_space_group_name_H-M   'P 1'
_cell_length_a   12.58145778
_cell_length_b   12.58160514
_cell_length_c   14.20926827
_cell_angle_alpha   87.37743034
_cell_angle_beta   87.37531005
_cell_angle_gamma   90.25848915
_symmetry_Int_Tables_number   1
_chemical_formula_structural   H8PbC8S2(IN)4
_chemical_formula_sum   'H32 Pb4 C32 S8 I16 N16'
_cell_volume   2244.49301416
_cell_formula_units_Z   4
loop_
 _symmetry_equiv_pos_site_id
 _symmetry_equiv_pos_as_xyz
  1  'x, y, z'
loop_
 _atom_site_type_symbol
 _atom_site_label
 _atom_site_symmetry_multiplicity
 _atom_site_fract_x
 _atom_site_fract_y
 _atom_site_fract_z
 _atom_site_occupancy
  H  H0  1  0.18537279  0.27104838  0.87352765  1
  H  H1  1  0.25494423  0.16075024  0.85292532  1
  H  H2  1  0.32086539  0.27412825  0.86741780  1
  H  H3  1  0.24865446  0.04986549  0.53315333  1
  H  H4  1  0.24508440  0.33923453  0.14707160  1
  H  H5  1  0.31466502  0.22894216  0.12646744  1
  H  H6  1  0.17917182  0.22585294  0.13257291  1
  H  H7  1  0.25135047  0.45012493  0.46684007  1
  H  H8  1  0.27412786  0.82085387  0.86743221  1
  H  H9  1  0.16075730  0.75491283  0.85294159  1
  H  H10  1  0.27106866  0.68536338  0.87351804  1
  H  H11  1  0.04987025  0.74864832  0.53315632  1
  H  H12  1  0.33924239  0.74505268  0.14705502  1
  H  H13  1  0.22584478  0.67915608  0.13257451  1
  H  H14  1  0.22895669  0.81464665  0.12646028  1
  H  H15  1  0.45013792  0.75134995  0.46683486  1
  H  H16  1  0.72894720  0.31465338  0.12646076  1
  H  H17  1  0.83924305  0.24507490  0.14706602  1
  H  H18  1  0.72586022  0.17916200  0.13257741  1
  H  H19  1  0.95013315  0.25134356  0.46683650  1
  H  H20  1  0.66075252  0.25489592  0.85293478  1
  H  H21  1  0.77107344  0.18536048  0.87351859  1
  H  H22  1  0.77411224  0.32085125  0.86742805  1
  H  H23  1  0.54986491  0.24865470  0.53315736  1
  H  H24  1  0.67918144  0.72587397  0.13256169  1
  H  H25  1  0.74510563  0.83925059  0.14706015  1
  H  H26  1  0.81467367  0.72895127  0.12646184  1
  H  H27  1  0.75135197  0.95012730  0.46684803  1
  H  H28  1  0.75492498  0.66073408  0.85293560  1
  H  H29  1  0.82085620  0.77410649  0.86742888  1
  H  H30  1  0.68536386  0.77103828  0.87353062  1
  H  H31  1  0.74865372  0.54986293  0.53314409  1
  Pb  Pb32  1  -0.00001326  0.00003211  -0.00000821  1
  Pb  Pb33  1  0.99992099  0.49990684  0.00000268  1
  Pb  Pb34  1  0.50004863  -0.00002466  0.00007236  1
  Pb  Pb35  1  0.49983998  0.50005496  1.00001964  1
  C  C36  1  0.25273863  0.25736576  0.73557910  1
  C  C37  1  0.25043140  0.20533658  0.59147508  1
  C  C38  1  0.24926419  0.13540998  0.51771456  1
  C  C39  1  0.24884949  0.18140835  0.42675695  1
  C  C40  1  0.24728038  0.24262327  0.26441573  1
  C  C41  1  0.24957232  0.29465392  0.40851957  1
  C  C42  1  0.25073692  0.36458079  0.48227997  1
  C  C43  1  0.25114926  0.31858191  0.57323853  1
  C  C44  1  0.25736870  0.75274293  0.73558038  1
  C  C45  1  0.20534157  0.75043263  0.59147882  1
  C  C46  1  0.13541695  0.74926297  0.51771533  1
  C  C47  1  0.18141887  0.74885116  0.42675267  1
  C  C48  1  0.24263576  0.74727488  0.26441078  1
  C  C49  1  0.29466585  0.74957316  0.40851215  1
  C  C50  1  0.36459138  0.75074139  0.48227544  1
  C  C51  1  0.31858907  0.75115879  0.57323841  1
  C  C52  1  0.74263227  0.24728563  0.26441353  1
  C  C53  1  0.79466057  0.24957362  0.40851490  1
  C  C54  1  0.86458750  0.25073499  0.48227705  1
  C  C55  1  0.81858480  0.25114997  0.57323619  1
  C  C56  1  0.75736449  0.25273492  0.73557765  1
  C  C57  1  0.70533588  0.25043241  0.59147732  1
  C  C58  1  0.63541219  0.24926707  0.51771721  1
  C  C59  1  0.68141570  0.24885659  0.42675512  1
  C  C60  1  0.74728660  0.74263868  0.26440975  1
  C  C61  1  0.74957340  0.79466044  0.40851598  1
  C  C62  1  0.75073795  0.86458100  0.48228265  1
  C  C63  1  0.75115084  0.81857520  0.57324279  1
  C  C64  1  0.75273485  0.75734879  0.73558291  1
  C  C65  1  0.75042986  0.70532971  0.59147716  1
  C  C66  1  0.74926330  0.63540991  0.51771011  1
  C  C67  1  0.74885109  0.68141530  0.42675091  1
  S  S68  1  0.24693681  0.11758793  0.32073596  1
  S  S69  1  0.25306885  0.38240028  0.67925858  1
  S  S70  1  0.11759980  0.74693831  0.32073443  1
  S  S71  1  0.38240500  0.75308558  0.67925744  1
  S  S72  1  0.88240141  0.25306629  0.67925701  1
  S  S73  1  0.61759681  0.24695535  0.32073599  1
  S  S74  1  0.75306857  0.88238722  0.67926678  1
  S  S75  1  0.74694460  0.61760057  0.32072639  1
  I  I76  1  0.24975800  0.96235683  0.99753764  1
  I  I77  1  0.25015104  0.53766834  0.00248570  1
  I  I78  1  0.75031994  0.03770324  0.00248617  1
  I  I79  1  0.74959540  0.46233166  0.99754520  1
  I  I80  1  0.03771576  0.25026305  0.00248940  1
  I  I81  1  0.96237311  0.74970102  0.99751556  1
  I  I82  1  0.46232910  0.24972063  0.99752961  1
  I  I83  1  0.53766517  0.75028854  0.00248301  1
  I  I84  1  0.00935829  0.99649668  0.77946582  1
  I  I85  1  0.99058444  0.00361159  0.22054543  1
  I  I86  1  0.99643528  0.50934406  0.77945736  1
  I  I87  1  0.00360445  0.49059736  0.22053377  1
  I  I88  1  0.49647262  0.00940901  0.77954090  1
  I  I89  1  0.50359587  0.99064211  0.22060996  1
  I  I90  1  0.50929812  0.49644922  0.77945512  1
  I  I91  1  0.49055101  0.50358206  0.22053259  1
  N  N92  1  0.25362543  0.24220809  0.83781386  1
  N  N93  1  0.25121833  0.17397349  0.68575091  1
  N  N94  1  0.24640684  0.25777743  0.16218060  1
  N  N95  1  0.24879605  0.32601655  0.31424368  1
  N  N96  1  0.24221558  0.75361404  0.83782057  1
  N  N97  1  0.17397624  0.75121512  0.68575290  1
  N  N98  1  0.25778523  0.74638922  0.16217243  1
  N  N99  1  0.32602877  0.74879218  0.31423710  1
  N  N100  1  0.75778490  0.24640176  0.16217729  1
  N  N101  1  0.82602663  0.24879447  0.31424207  1
  N  N102  1  0.74221097  0.25360568  0.83781759  1
  N  N103  1  0.67397004  0.25121613  0.68575029  1
  N  N104  1  0.74641890  0.75779313  0.16217000  1
  N  N105  1  0.74879919  0.82602877  0.31424269  1
  N  N106  1  0.75361426  0.74219187  0.83782244  1
  N  N107  1  0.75121396  0.67395960  0.68574927  1
