# generated using pymatgen
data_H22PbC26S2(I2N)2
_symmetry_space_group_name_H-M   'P 1'
_cell_length_a   12.39590557
_cell_length_b   12.40519812
_cell_length_c   26.51495471
_cell_angle_alpha   89.78100905
_cell_angle_beta   89.71976417
_cell_angle_gamma   90.05489328
_symmetry_Int_Tables_number   1
_chemical_formula_structural   H22PbC26S2(I2N)2
_chemical_formula_sum   'H88 Pb4 C104 S8 I16 N8'
_cell_volume   4077.22125293
_cell_formula_units_Z   4
loop_
 _symmetry_equiv_pos_site_id
 _symmetry_equiv_pos_as_xyz
  1  'x, y, z'
loop_
 _atom_site_type_symbol
 _atom_site_label
 _atom_site_symmetry_multiplicity
 _atom_site_fract_x
 _atom_site_fract_y
 _atom_site_fract_z
 _atom_site_occupancy
  H  H0  1  0.17550812  0.34768382  0.92607655  1
  H  H1  1  0.30535584  0.31369365  0.92670781  1
  H  H2  1  0.27061822  0.43823283  0.90989037  1
  H  H3  1  0.23057972  0.48883892  0.82585641  1
  H  H4  1  0.20637560  0.43141040  0.73709984  1
  H  H5  1  0.09779278  0.08608433  0.71365208  1
  H  H6  1  0.10935888  0.05215370  0.61523384  1
  H  H7  1  0.23333420  0.01957450  0.54987951  1
  H  H8  1  0.27202574  0.01435936  0.45888634  1
  H  H9  1  0.41418225  0.04292386  0.39120217  1
  H  H10  1  0.42605609  0.07578056  0.29278200  1
  H  H11  1  0.29177087  0.09267399  0.21907900  1
  H  H12  1  0.25878206  0.15658470  0.13215232  1
  H  H13  1  0.16425632  0.39680133  0.10075234  1
  H  H14  1  0.29696784  0.42679812  0.09315185  1
  H  H15  1  0.25067686  0.30668916  0.07494661  1
  H  H16  1  0.27411978  0.48631040  0.18368199  1
  H  H17  1  0.30889074  0.42235592  0.27069030  1
  H  H18  1  0.28266420  0.36200726  0.45483140  1
  H  H19  1  0.23819908  0.36733516  0.54559225  1
  H  H20  1  0.22443998  0.09810495  0.78436882  1
  H  H21  1  0.24416780  0.15518013  0.87291119  1
  H  H22  1  0.35083568  0.82774824  0.92490221  1
  H  H23  1  0.31093306  0.69962875  0.92755729  1
  H  H24  1  0.43672710  0.72801622  0.90999376  1
  H  H25  1  0.48820737  0.77139361  0.82583087  1
  H  H26  1  0.43097012  0.79483650  0.73689902  1
  H  H27  1  0.08817235  0.90601539  0.71268348  1
  H  H28  1  0.05485912  0.89458738  0.61416210  1
  H  H29  1  0.01974484  0.76780529  0.54995137  1
  H  H30  1  0.01413453  0.72846241  0.45916852  1
  H  H31  1  0.04236216  0.58578243  0.39209663  1
  H  H32  1  0.07516873  0.57361119  0.29372174  1
  H  H33  1  0.09206887  0.70705188  0.21940603  1
  H  H34  1  0.15579269  0.74065107  0.13228283  1
  H  H35  1  0.39596066  0.83703726  0.10064065  1
  H  H36  1  0.42600742  0.70472085  0.09284178  1
  H  H37  1  0.30567749  0.75120371  0.07496125  1
  H  H38  1  0.48589116  0.72735305  0.18359339  1
  H  H39  1  0.42218177  0.69190117  0.27076149  1
  H  H40  1  0.36202543  0.71695732  0.45486553  1
  H  H41  1  0.36766815  0.76188734  0.54541861  1
  H  H42  1  0.09730102  0.77558056  0.78413359  1
  H  H43  1  0.15420803  0.75634337  0.87284271  1
  H  H44  1  0.62684820  0.30848505  0.07660803  1
  H  H45  1  0.69076056  0.18987942  0.07446521  1
  H  H46  1  0.56523049  0.19431545  0.09678691  1
  H  H47  1  0.51303007  0.26736411  0.17734448  1
  H  H48  1  0.57481543  0.30487717  0.26432889  1
  H  H49  1  0.91672225  0.42675134  0.28644087  1
  H  H50  1  0.94970387  0.41525439  0.38481437  1
  H  H51  1  0.98409158  0.27439902  0.45151606  1
  H  H52  1  0.98086843  0.23574093  0.54257752  1
  H  H53  1  0.95309450  0.10961248  0.60768218  1
  H  H54  1  0.92072726  0.09740231  0.70632305  1
  H  H55  1  0.90371607  0.21484364  0.77899043  1
  H  H56  1  0.84347254  0.23156835  0.86746274  1
  H  H57  1  0.60894658  0.31918823  0.90713066  1
  H  H58  1  0.57117771  0.18730460  0.90486438  1
  H  H59  1  0.69298794  0.21882869  0.92615372  1
  H  H60  1  0.51134910  0.22566910  0.81871927  1
  H  H61  1  0.57171749  0.20322850  0.73008092  1
  H  H62  1  0.63300452  0.22401099  0.53992839  1
  H  H63  1  0.63606395  0.26832181  0.44908200  1
  H  H64  1  0.90605426  0.28245617  0.21383496  1
  H  H65  1  0.84437081  0.24624774  0.12695090  1
  H  H66  1  0.69257483  0.62535541  0.07699440  1
  H  H67  1  0.81068880  0.69110192  0.07423053  1
  H  H68  1  0.80728616  0.56586023  0.09684529  1
  H  H69  1  0.73398710  0.51350921  0.17749470  1
  H  H70  1  0.69583473  0.57523611  0.26459342  1
  H  H71  1  0.57321140  0.91681633  0.28727258  1
  H  H72  1  0.58491197  0.94985059  0.38560049  1
  H  H73  1  0.72619773  0.98416642  0.45189062  1
  H  H74  1  0.76554763  0.98055222  0.54274577  1
  H  H75  1  0.89535200  0.95028014  0.60678703  1
  H  H76  1  0.90707396  0.91834632  0.70550139  1
  H  H77  1  0.78558284  0.90404524  0.77879532  1
  H  H78  1  0.76957541  0.84395349  0.86740786  1
  H  H79  1  0.68365244  0.60622995  0.90712809  1
  H  H80  1  0.81668939  0.57330616  0.90458587  1
  H  H81  1  0.78084825  0.69392837  0.92608446  1
  H  H82  1  0.77575497  0.51204084  0.81864217  1
  H  H83  1  0.79730687  0.57226723  0.72983907  1
  H  H84  1  0.77593436  0.63302764  0.53966010  1
  H  H85  1  0.73113911  0.63638179  0.44901504  1
  H  H86  1  0.71679532  0.90624588  0.21399007  1
  H  H87  1  0.75364678  0.84455160  0.12696962  1
  Pb  Pb88  1  0.00511789  0.99988903  0.99797634  1
  Pb  Pb89  1  -0.00325095  0.49930318  0.00246913  1
  Pb  Pb90  1  0.50667653  0.99642750  0.00251648  1
  Pb  Pb91  1  0.49793196  0.49731228  0.99608546  1
  C  C92  1  0.24053459  0.32509631  0.85374295  1
  C  C93  1  0.23082818  0.40350090  0.81630592  1
  C  C94  1  0.21782423  0.37103983  0.76659091  1
  C  C95  1  0.21504354  0.26091138  0.75426618  1
  C  C96  1  0.20063329  0.22465113  0.70238361  1
  C  C97  1  0.14372540  0.13495907  0.68706048  1
  C  C98  1  0.14908645  0.11774079  0.63464458  1
  C  C99  1  0.20953367  0.19382658  0.60886155  1
  C  C100  1  0.23354751  0.19406895  0.55486080  1
  C  C101  1  0.24312455  0.09508814  0.52912745  1
  C  C102  1  0.26662435  0.09203873  0.47789022  1
  C  C103  1  0.28234311  0.18783828  0.44999194  1
  C  C104  1  0.30949702  0.18288375  0.39631553  1
  C  C105  1  0.37239286  0.10741395  0.37137146  1
  C  C106  1  0.37860422  0.12473074  0.31869076  1
  C  C107  1  0.32033892  0.21358554  0.30270045  1
  C  C108  1  0.30308113  0.25269880  0.25124399  1
  C  C109  1  0.28978853  0.17898986  0.21150800  1
  C  C110  1  0.27086622  0.21463934  0.16241586  1
  C  C111  1  0.26543242  0.32487028  0.15337196  1
  C  C112  1  0.27796233  0.40025597  0.19181398  1
  C  C113  1  0.29700821  0.36391701  0.24057686  1
  C  C114  1  0.27098303  0.28662461  0.47550456  1
  C  C115  1  0.24718634  0.28970805  0.52682189  1
  C  C116  1  0.22526503  0.18382690  0.79312128  1
  C  C117  1  0.23748180  0.21551094  0.84305443  1
  C  C118  1  0.32430100  0.76068825  0.85369097  1
  C  C119  1  0.40288203  0.77070773  0.81622271  1
  C  C120  1  0.37051807  0.78327753  0.76644262  1
  C  C121  1  0.26033427  0.78556134  0.75409043  1
  C  C122  1  0.22441223  0.80018149  0.70211610  1
  C  C123  1  0.13615322  0.85885611  0.68639461  1
  C  C124  1  0.11938287  0.85372493  0.63394838  1
  C  C125  1  0.19432692  0.79159549  0.60861028  1
  C  C126  1  0.19433805  0.76708021  0.55475061  1
  C  C127  1  0.09519601  0.75761305  0.52916818  1
  C  C128  1  0.09194448  0.73382300  0.47805741  1
  C  C129  1  0.18771790  0.71776548  0.45016964  1
  C  C130  1  0.18259761  0.69047192  0.39661862  1
  C  C131  1  0.10695050  0.62752009  0.37202648  1
  C  C132  1  0.12426013  0.62113694  0.31936620  1
  C  C133  1  0.21327174  0.67933245  0.30302882  1
  C  C134  1  0.25231503  0.69659004  0.25145921  1
  C  C135  1  0.17842043  0.70934061  0.21171488  1
  C  C136  1  0.21395334  0.72853475  0.16252432  1
  C  C137  1  0.32424363  0.73492139  0.15335248  1
  C  C138  1  0.39978351  0.72282497  0.19178981  1
  C  C139  1  0.36357581  0.70338892  0.24065418  1
  C  C140  1  0.28668111  0.72894595  0.47553985  1
  C  C141  1  0.28995273  0.75297824  0.52673397  1
  C  C142  1  0.18304940  0.77500332  0.79294771  1
  C  C143  1  0.21466398  0.76300512  0.84294804  1
  C  C144  1  0.67548036  0.25588693  0.14767908  1
  C  C145  1  0.59890852  0.27091562  0.18568985  1
  C  C146  1  0.63397912  0.29148870  0.23442595  1
  C  C147  1  0.74498544  0.29698271  0.24524288  1
  C  C148  1  0.78301739  0.31561002  0.29663717  1
  C  C149  1  0.86957258  0.37720803  0.31244724  1
  C  C150  1  0.88697823  0.37105842  0.36504864  1
  C  C151  1  0.81394391  0.30474004  0.38999348  1
  C  C152  1  0.81018314  0.27676022  0.44355285  1
  C  C153  1  0.90677939  0.26549402  0.47092697  1
  C  C154  1  0.90493479  0.24206258  0.52215872  1
  C  C155  1  0.80645806  0.22815291  0.54833251  1
  C  C156  1  0.80814319  0.20477908  0.60233727  1
  C  C157  1  0.88662154  0.14731247  0.62761236  1
  C  C158  1  0.87016766  0.14176564  0.68014846  1
  C  C159  1  0.77896508  0.19581530  0.69606847  1
  C  C160  1  0.74187905  0.20903765  0.74801542  1
  C  C161  1  0.81758080  0.21676170  0.78731365  1
  C  C162  1  0.78410745  0.22752041  0.83728586  1
  C  C163  1  0.67418253  0.23188140  0.84746228  1
  C  C164  1  0.59706653  0.22494316  0.80948449  1
  C  C165  1  0.63119588  0.21303745  0.75988700  1
  C  C166  1  0.71010441  0.23681310  0.52078119  1
  C  C167  1  0.71197287  0.26049222  0.46944404  1
  C  C168  1  0.81995356  0.28131202  0.20591768  1
  C  C169  1  0.78561353  0.26067461  0.15692981  1
  C  C170  1  0.74454067  0.67579634  0.14773489  1
  C  C171  1  0.72988838  0.59934786  0.18583504  1
  C  C172  1  0.70895885  0.63436916  0.23462029  1
  C  C173  1  0.70281982  0.74528392  0.24545532  1
  C  C174  1  0.68421079  0.78324969  0.29693677  1
  C  C175  1  0.62274241  0.86974268  0.31304348  1
  C  C176  1  0.62900345  0.88717507  0.36562648  1
  C  C177  1  0.69527065  0.81423174  0.39026405  1
  C  C178  1  0.72331765  0.81039242  0.44371525  1
  C  C179  1  0.73499750  0.90682300  0.47114414  1
  C  C180  1  0.75875924  0.90478793  0.52224800  1
  C  C181  1  0.77249499  0.80629989  0.54823105  1
  C  C182  1  0.79638484  0.80775376  0.60210985  1
  C  C183  1  0.85597916  0.88495228  0.62701481  1
  C  C184  1  0.86115937  0.86885556  0.67957318  1
  C  C185  1  0.80483207  0.77912770  0.69581813  1
  C  C186  1  0.79137451  0.74227755  0.74783928  1
  C  C187  1  0.78370518  0.81799970  0.78715904  1
  C  C188  1  0.77329062  0.78459258  0.83719557  1
  C  C189  1  0.76932472  0.67475595  0.84740172  1
  C  C190  1  0.77620467  0.59764211  0.80937332  1
  C  C191  1  0.78760294  0.63169773  0.75970998  1
  C  C192  1  0.76326238  0.71010404  0.52063997  1
  C  C193  1  0.73933360  0.71215141  0.46942805  1
  C  C194  1  0.71810813  0.82020078  0.20603784  1
  C  C195  1  0.73903654  0.78586909  0.15698589  1
  S  S196  1  0.25849795  0.27561892  0.35365549  1
  S  S197  1  0.26017101  0.28808934  0.65082291  1
  S  S198  1  0.27546095  0.74133219  0.35365553  1
  S  S199  1  0.28705990  0.73919167  0.65096555  1
  S  S200  1  0.71295719  0.25272717  0.64485182  1
  S  S201  1  0.72323098  0.25065127  0.34752856  1
  S  S202  1  0.74610032  0.71411168  0.64495409  1
  S  S203  1  0.74920005  0.72357863  0.34752895  1
  I  I204  1  0.25829592  0.92761345  1.00098451  1
  I  I205  1  0.24729355  0.57914630  0.00100877  1
  I  I206  1  0.75261451  0.08373385  0.99878398  1
  I  I207  1  0.74375687  0.42533629  0.00001117  1
  I  I208  1  0.07525023  0.25688121  1.00111395  1
  I  I209  1  0.91826519  0.75131693  0.99855663  1
  I  I210  1  0.42188998  0.24865983  0.00122725  1
  I  I211  1  0.57499323  0.74481713  -0.00037616  1
  I  I212  1  0.99942123  0.99927156  0.87618915  1
  I  I213  1  0.99856709  -0.00102120  0.11632493  1
  I  I214  1  0.99661733  0.49278623  0.88489518  1
  I  I215  1  0.99846196  0.49087165  0.12608748  1
  I  I216  1  0.49362344  0.00429378  0.88511273  1
  I  I217  1  0.49162096  0.00135178  0.12599072  1
  I  I218  1  0.50682243  0.50122290  0.87514712  1
  I  I219  1  0.49997251  0.50290983  0.11368613  1
  N  N220  1  0.24870517  0.35837267  0.90651160  1
  N  N221  1  0.24339961  0.36519428  0.10248160  1
  N  N222  1  0.35780002  0.75337457  0.90644874  1
  N  N223  1  0.36432539  0.75786583  0.10240092  1
  N  N224  1  0.63769592  0.23675644  0.09625091  1
  N  N225  1  0.63557912  0.24136315  0.89953577  1
  N  N226  1  0.76416835  0.63784188  0.09629687  1
  N  N227  1  0.76061245  0.63596696  0.89945130  1
