# generated using pymatgen
data_H18PbC22S2(I2N)2
_symmetry_space_group_name_H-M   'P 1'
_cell_length_a   12.40678731
_cell_length_b   12.40672495
_cell_length_c   23.25855961
_cell_angle_alpha   90.05948630
_cell_angle_beta   90.06038840
_cell_angle_gamma   89.95377238
_symmetry_Int_Tables_number   1
_chemical_formula_structural   H18PbC22S2(I2N)2
_chemical_formula_sum   'H72 Pb4 C88 S8 I16 N8'
_cell_volume   3580.12912351
_cell_formula_units_Z   4
loop_
 _symmetry_equiv_pos_site_id
 _symmetry_equiv_pos_as_xyz
  1  'x, y, z'
loop_
 _atom_site_type_symbol
 _atom_site_label
 _atom_site_symmetry_multiplicity
 _atom_site_fract_x
 _atom_site_fract_y
 _atom_site_fract_z
 _atom_site_occupancy
  H  H0  1  0.17719014  0.28678424  0.91423515  1
  H  H1  1  0.25154666  0.17455212  0.91564244  1
  H  H2  1  0.31006636  0.29599800  0.91435148  1
  H  H3  1  0.24869513  0.42542555  0.83082015  1
  H  H4  1  0.24752957  0.42914736  0.72489895  1
  H  H5  1  0.24511216  0.08704663  0.62832137  1
  H  H6  1  0.24635962  0.04699249  0.51052331  1
  H  H7  1  0.25320177  0.07055619  0.27572645  1
  H  H8  1  0.25160471  0.07441625  0.16980653  1
  H  H9  1  0.22514950  0.17843264  0.08446861  1
  H  H10  1  0.32507854  0.26739867  0.08703321  1
  H  H11  1  0.19924901  0.31131071  0.08674310  1
  H  H12  1  0.24398139  0.42191439  0.17315891  1
  H  H13  1  0.24494338  0.41949203  0.27899994  1
  H  H14  1  0.24883112  0.41262062  0.37242121  1
  H  H15  1  0.24721810  0.45278130  0.49027345  1
  H  H16  1  0.24163190  0.08015295  0.72196770  1
  H  H17  1  0.24288569  0.07791910  0.82783115  1
  H  H18  1  0.28637687  0.82303325  0.91426161  1
  H  H19  1  0.17447409  0.74835618  0.91558027  1
  H  H20  1  0.29626244  0.69024997  0.91434565  1
  H  H21  1  0.42544536  0.75117580  0.83084054  1
  H  H22  1  0.42922845  0.75230906  0.72492080  1
  H  H23  1  0.08715296  0.75473261  0.62832283  1
  H  H24  1  0.04710497  0.75362467  0.51052139  1
  H  H25  1  0.07063561  0.74696029  0.27574547  1
  H  H26  1  0.07444151  0.74851419  0.16982492  1
  H  H27  1  0.17836014  0.77497811  0.08453758  1
  H  H28  1  0.26711594  0.67469189  0.08701045  1
  H  H29  1  0.31132482  0.80031390  0.08669770  1
  H  H30  1  0.42193066  0.75618944  0.17313910  1
  H  H31  1  0.41956014  0.75525002  0.27898105  1
  H  H32  1  0.41272675  0.75132444  0.37242155  1
  H  H33  1  0.45288875  0.75279447  0.49027276  1
  H  H34  1  0.08021544  0.75818128  0.72194368  1
  H  H35  1  0.07793572  0.75696129  0.82780885  1
  H  H36  1  0.71419730  0.32355220  0.08571084  1
  H  H37  1  0.82577342  0.24833047  0.08446127  1
  H  H38  1  0.70374186  0.19085080  0.08559052  1
  H  H39  1  0.57473186  0.25116581  0.16912677  1
  H  H40  1  0.57087257  0.25235608  0.27503752  1
  H  H41  1  0.91291901  0.25488996  0.37167262  1
  H  H42  1  0.95299926  0.25363722  0.48946760  1
  H  H43  1  0.92942974  0.24667658  0.72431965  1
  H  H44  1  0.92544247  0.24821884  0.83023412  1
  H  H45  1  0.82134868  0.27478614  0.91563291  1
  H  H46  1  0.73174513  0.17545770  0.91290936  1
  H  H47  1  0.68873362  0.30166545  0.91316932  1
  H  H48  1  0.57795342  0.25589779  0.82679040  1
  H  H49  1  0.58049953  0.25495724  0.72094146  1
  H  H50  1  0.58740770  0.25116751  0.62757892  1
  H  H51  1  0.54721753  0.25277187  0.50973100  1
  H  H52  1  0.91986087  0.25825345  0.27808526  1
  H  H53  1  0.92222876  0.25695615  0.17221582  1
  H  H54  1  0.67619832  0.71465071  0.08568896  1
  H  H55  1  0.75176282  0.82587058  0.08453524  1
  H  H56  1  0.80882743  0.70351796  0.08559465  1
  H  H57  1  0.74898887  0.57471487  0.16911065  1
  H  H58  1  0.74781876  0.57079637  0.27501840  1
  H  H59  1  0.74526937  0.91281975  0.37167066  1
  H  H60  1  0.74638282  0.95289340  0.48946659  1
  H  H61  1  0.75315077  0.92934981  0.72430554  1
  H  H62  1  0.75163047  0.92541037  0.83021980  1
  H  H63  1  0.72507146  0.82140650  0.91557490  1
  H  H64  1  0.82473218  0.73199355  0.91293949  1
  H  H65  1  0.69875184  0.68868280  0.91321356  1
  H  H66  1  0.74395288  0.57793326  0.82681351  1
  H  H67  1  0.74486365  0.58042827  0.72096572  1
  H  H68  1  0.74867238  0.58730046  0.62758256  1
  H  H69  1  0.74720925  0.54711197  0.50973381  1
  H  H70  1  0.74191969  0.91980391  0.27811086  1
  H  H71  1  0.74317203  0.92222383  0.17224205  1
  Pb  Pb72  1  0.99872353  0.00055981  0.99954354  1
  Pb  Pb73  1  0.99947786  0.50128135  0.99969770  1
  Pb  Pb74  1  0.49908589  0.00103927  0.99975443  1
  Pb  Pb75  1  0.49923719  0.50064982  0.00117923  1
  C  C76  1  0.24631576  0.25158915  0.83455306  1
  C  C77  1  0.24733893  0.35045765  0.80651299  1
  C  C78  1  0.24660943  0.35144584  0.74674786  1
  C  C79  1  0.24484394  0.25492145  0.71474843  1
  C  C80  1  0.24497418  0.25666139  0.65182159  1
  C  C81  1  0.24522181  0.17076327  0.61434081  1
  C  C82  1  0.24589267  0.20105515  0.55511784  1
  C  C83  1  0.24648386  0.13449748  0.50612019  1
  C  C84  1  0.24726958  0.18378744  0.45242544  1
  C  C85  1  0.24865891  0.24293191  0.34897286  1
  C  C86  1  0.24903648  0.24463566  0.28604604  1
  C  C87  1  0.25105120  0.14830911  0.25392671  1
  C  C88  1  0.25022963  0.14941025  0.19408355  1
  C  C89  1  0.24763139  0.24831666  0.16622607  1
  C  C90  1  0.24611574  0.34548784  0.19612262  1
  C  C91  1  0.24667430  0.34321874  0.25584774  1
  C  C92  1  0.24833512  0.32891016  0.38641912  1
  C  C93  1  0.24752671  0.29870100  0.44566378  1
  C  C94  1  0.24697353  0.36527861  0.49466346  1
  C  C95  1  0.24616538  0.31597212  0.54836848  1
  C  C96  1  0.24342960  0.15648836  0.74505939  1
  C  C97  1  0.24424149  0.15433606  0.80486331  1
  C  C98  1  0.25159767  0.75353193  0.83454402  1
  C  C99  1  0.35048307  0.75247207  0.80653221  1
  C  C100  1  0.35148985  0.75319845  0.74675667  1
  C  C101  1  0.25501438  0.75500122  0.71474888  1
  C  C102  1  0.25676924  0.75509081  0.65182447  1
  C  C103  1  0.17086670  0.75485574  0.61434142  1
  C  C104  1  0.20115857  0.75413850  0.55511465  1
  C  C105  1  0.13460152  0.75349701  0.50612092  1
  C  C106  1  0.18389335  0.75267029  0.45242546  1
  C  C107  1  0.24304076  0.75127337  0.34897174  1
  C  C108  1  0.24471824  0.75111518  0.28604272  1
  C  C109  1  0.14837564  0.74913703  0.25393697  1
  C  C110  1  0.14944058  0.74995160  0.19410432  1
  C  C111  1  0.24832333  0.75252032  0.16622739  1
  C  C112  1  0.34550897  0.75410194  0.19610470  1
  C  C113  1  0.34327331  0.75354408  0.25583116  1
  C  C114  1  0.32901434  0.75158817  0.38641704  1
  C  C115  1  0.29880836  0.75243210  0.44566213  1
  C  C116  1  0.36538500  0.75303676  0.49466332  1
  C  C117  1  0.31607658  0.75388025  0.54836719  1
  C  C118  1  0.15654277  0.75635519  0.74504920  1
  C  C119  1  0.15436581  0.75554292  0.80483476  1
  C  C120  1  0.74859136  0.25387898  0.16544283  1
  C  C121  1  0.64966696  0.25271919  0.19345383  1
  C  C122  1  0.64859548  0.25338183  0.25320815  1
  C  C123  1  0.74509937  0.25517252  0.28524745  1
  C  C124  1  0.74330764  0.25502734  0.34817276  1
  C  C125  1  0.82919834  0.25478013  0.38565441  1
  C  C126  1  0.79892652  0.25410531  0.44487800  1
  C  C127  1  0.86549377  0.25351677  0.49387181  1
  C  C128  1  0.81622195  0.25273208  0.54756870  1
  C  C129  1  0.75709200  0.25134721  0.65102122  1
  C  C130  1  0.75536645  0.25098515  0.71395228  1
  C  C131  1  0.85164509  0.24893149  0.74609425  1
  C  C132  1  0.85047433  0.24980963  0.80593982  1
  C  C133  1  0.75153188  0.25257233  0.83376125  1
  C  C134  1  0.65440952  0.25395560  0.80383203  1
  C  C135  1  0.65674203  0.25332827  0.74411908  1
  C  C136  1  0.67111232  0.25166559  0.61357457  1
  C  C137  1  0.70130815  0.25246975  0.55433443  1
  C  C138  1  0.63472191  0.25301663  0.50533615  1
  C  C139  1  0.68401093  0.25382567  0.45163065  1
  C  C140  1  0.84354368  0.25655304  0.25497485  1
  C  C141  1  0.84577821  0.25579723  0.19516425  1
  C  C142  1  0.74627381  0.74859144  0.16545511  1
  C  C143  1  0.74749058  0.64964497  0.19343738  1
  C  C144  1  0.74682163  0.64855201  0.25320250  1
  C  C145  1  0.74498363  0.74501033  0.28524954  1
  C  C146  1  0.74490411  0.74320840  0.34817657  1
  C  C147  1  0.74514584  0.82911000  0.38565589  1
  C  C148  1  0.74586515  0.79882790  0.44487983  1
  C  C149  1  0.74650744  0.86539949  0.49387459  1
  C  C150  1  0.74733444  0.81611894  0.54756932  1
  C  C151  1  0.74872234  0.75698587  0.65102558  1
  C  C152  1  0.74886138  0.75527167  0.71395231  1
  C  C153  1  0.75086805  0.85158961  0.74609157  1
  C  C154  1  0.74998208  0.85044268  0.80592416  1
  C  C155  1  0.74726483  0.75151632  0.83376612  1
  C  C156  1  0.74584198  0.65437636  0.80385809  1
  C  C157  1  0.74646691  0.65668656  0.74413187  1
  C  C158  1  0.74840518  0.67101072  0.61358170  1
  C  C159  1  0.74756855  0.70120056  0.55433692  1
  C  C160  1  0.74696073  0.63461474  0.50534133  1
  C  C161  1  0.74611932  0.68390825  0.45163130  1
  C  C162  1  0.74364864  0.84350823  0.25498653  1
  C  C163  1  0.74439116  0.84576698  0.19519533  1
  S  S164  1  0.24794315  0.11957719  0.38592092  1
  S  S165  1  0.24554258  0.38009910  0.61489894  1
  S  S166  1  0.11967843  0.75190425  0.38592237  1
  S  S167  1  0.38020151  0.75458965  0.61490185  1
  S  S168  1  0.88044442  0.25206200  0.61407334  1
  S  S169  1  0.61987120  0.25444699  0.38509779  1
  S  S170  1  0.74809968  0.88034453  0.61407276  1
  S  S171  1  0.74540484  0.61977317  0.38509770  1
  I  I172  1  0.24875204  0.03868368  0.99910065  1
  I  I173  1  0.24908904  0.46497281  0.00147823  1
  I  I174  1  0.74860708  0.96252321  0.99966923  1
  I  I175  1  0.74875528  0.53658610  0.99988371  1
  I  I176  1  0.96129110  0.25136925  0.99960143  1
  I  I177  1  0.03747875  0.75113129  0.99908136  1
  I  I178  1  0.53509200  0.25118562  0.99985908  1
  I  I179  1  0.46338568  0.75095664  0.00148275  1
  I  I180  1  0.99839731  1.00005384  0.86393934  1
  I  I181  1  0.99954895  0.00073419  0.13532207  1
  I  I182  1  0.99904172  0.50058644  0.86401803  1
  I  I183  1  0.00007127  0.50129448  0.13568700  1
  I  I184  1  0.49929786  0.00068581  0.86402822  1
  I  I185  1  0.49973213  0.00149825  0.13568495  1
  I  I186  1  0.49897114  0.50016870  0.86473687  1
  I  I187  1  0.49917928  0.50077656  0.13658752  1
  N  N188  1  0.24643034  0.25163162  0.89787983  1
  N  N189  1  0.24880660  0.25116143  0.10293099  1
  N  N190  1  0.25154434  0.75363597  0.89787164  1
  N  N191  1  0.25105257  0.75109887  0.10293798  1
  N  N192  1  0.74872944  0.25399215  0.10211618  1
  N  N193  1  0.74849677  0.25158976  0.89705868  1
  N  N194  1  0.74593175  0.74883173  0.10213058  1
  N  N195  1  0.74847495  0.74858488  0.89706305  1
