# generated using pymatgen
data_H16PbC22S2(I2N)2
_symmetry_space_group_name_H-M   'P 1'
_cell_length_a   12.36058380
_cell_length_b   12.35969092
_cell_length_c   20.61613657
_cell_angle_alpha   89.40555124
_cell_angle_beta   89.40689100
_cell_angle_gamma   90.43457432
_symmetry_Int_Tables_number   1
_chemical_formula_structural   H16PbC22S2(I2N)2
_chemical_formula_sum   'H64 Pb4 C88 S8 I16 N8'
_cell_volume   3149.15749384
_cell_formula_units_Z   4
loop_
 _symmetry_equiv_pos_site_id
 _symmetry_equiv_pos_as_xyz
  1  'x, y, z'
loop_
 _atom_site_type_symbol
 _atom_site_label
 _atom_site_symmetry_multiplicity
 _atom_site_fract_x
 _atom_site_fract_y
 _atom_site_fract_z
 _atom_site_occupancy
  H  H0  1  0.25016949  0.16544543  0.89317115  1
  H  H1  1  0.18479954  0.28163658  0.90353115  1
  H  H2  1  0.31865861  0.28105733  0.90190047  1
  H  H3  1  0.24967688  0.44486689  0.81334090  1
  H  H4  1  0.25005125  0.53726181  0.68795302  1
  H  H5  1  0.24973362  0.50270148  0.57163982  1
  H  H6  1  0.25052335  0.47392667  0.47982724  1
  H  H7  1  0.24936427  0.43782654  0.36452216  1
  H  H8  1  0.25022087  -0.00267484  0.42837178  1
  H  H9  1  0.24991477  0.96276098  0.31205957  1
  H  H10  1  0.25031687  0.05514368  0.18666952  1
  H  H11  1  0.18133373  0.21895528  0.09812799  1
  H  H12  1  0.24981443  0.33457464  0.10684091  1
  H  H13  1  0.31519582  0.21839786  0.09645472  1
  H  H14  1  0.24945528  0.02610403  0.52017869  1
  H  H15  1  0.25065147  0.06220018  0.63548215  1
  H  H16  1  0.16543220  0.75019641  0.89314478  1
  H  H17  1  0.28100902  0.81874639  0.90187393  1
  H  H18  1  0.28163700  0.68487249  0.90353067  1
  H  H19  1  0.44485096  0.74963139  0.81333051  1
  H  H20  1  0.53723154  0.75003081  0.68793646  1
  H  H21  1  0.50266358  0.74976765  0.57162863  1
  H  H22  1  0.47388467  0.75062708  0.47981290  1
  H  H23  1  0.43776976  0.74942233  0.36451101  1
  H  H24  1  -0.00268428  0.75022786  0.42836724  1
  H  H25  1  0.96274530  0.74991210  0.31205940  1
  H  H26  1  0.05512217  0.75031546  0.18666542  1
  H  H27  1  0.21841401  0.81529593  0.09647823  1
  H  H28  1  0.33453280  0.74981170  0.10684504  1
  H  H29  1  0.21886923  0.68142225  0.09810474  1
  H  H30  1  0.02609676  0.74945834  0.52017762  1
  H  H31  1  0.06220907  0.75069986  0.63548058  1
  H  H32  1  0.83455621  0.24975582  0.10683500  1
  H  H33  1  0.71842700  0.31522577  0.09645632  1
  H  H34  1  0.71890813  0.18135198  0.09809446  1
  H  H35  1  0.55513674  0.25037320  0.18665100  1
  H  H36  1  0.46275522  0.24992989  0.31204303  1
  H  H37  1  0.49730859  0.25022529  0.42834963  1
  H  H38  1  0.52608350  0.24958077  0.52017081  1
  H  H39  1  0.56218876  0.25072192  0.63547342  1
  H  H40  1  1.00264466  0.24974387  0.57163489  1
  H  H41  1  0.03720990  0.25005306  0.68794111  1
  H  H42  1  0.94482341  0.24965013  0.81333598  1
  H  H43  1  0.78093002  0.31870191  0.90186348  1
  H  H44  1  0.66539536  0.25009853  0.89314834  1
  H  H45  1  0.78163439  0.18483158  0.90356039  1
  H  H46  1  0.97387583  0.25056910  0.47981727  1
  H  H47  1  0.93777130  0.24937936  0.36451218  1
  H  H48  1  0.74986440  0.83459339  0.10682767  1
  H  H49  1  0.68133548  0.71900565  0.09811236  1
  H  H50  1  0.81519790  0.71838124  0.09645409  1
  H  H51  1  0.75041147  0.55517088  0.18665850  1
  H  H52  1  0.74996538  0.46278046  0.31204499  1
  H  H53  1  0.75024080  0.49733689  0.42835268  1
  H  H54  1  0.74940692  0.52609507  0.52016687  1
  H  H55  1  0.75058327  0.56218445  0.63547121  1
  H  H56  1  0.74976698  1.00268500  0.57164536  1
  H  H57  1  0.75006687  0.03723522  0.68795338  1
  H  H58  1  0.74965700  0.94484289  0.81333842  1
  H  H59  1  0.68477538  0.78168645  0.90354130  1
  H  H60  1  0.75002604  0.66541989  0.89316805  1
  H  H61  1  0.81863579  0.78095699  0.90188272  1
  H  H62  1  0.75058976  0.97392706  0.47982898  1
  H  H63  1  0.74936430  0.93783782  0.36452419  1
  Pb  Pb64  1  0.00020507  0.99957004  0.99993280  1
  Pb  Pb65  1  0.00019104  0.49950681  0.00003943  1
  Pb  Pb66  1  0.50012050  0.99996744  0.00005904  1
  Pb  Pb67  1  0.50023625  0.50014202  0.00009734  1
  C  C68  1  0.25022166  0.26962373  0.81081366  1
  C  C69  1  0.25023436  0.37137417  0.78483058  1
  C  C70  1  0.25107304  0.36764950  0.71568247  1
  C  C71  1  0.25046961  0.45447157  0.67039910  1
  C  C72  1  0.25037125  0.43389490  0.60498132  1
  C  C73  1  0.25082816  0.32648694  0.58014075  1
  C  C74  1  0.25017073  0.30445896  0.51116841  1
  C  C75  1  0.24994384  0.39013964  0.46415951  1
  C  C76  1  0.24914452  0.37012508  0.39897441  1
  C  C77  1  0.24844381  0.26262674  0.37510670  1
  C  C78  1  0.24917387  0.17353985  0.41986880  1
  C  C79  1  0.24961097  0.06613295  0.39502867  1
  C  C80  1  0.24952123  0.04554916  0.32961131  1
  C  C81  1  0.24894951  0.13236864  0.28432577  1
  C  C82  1  0.24979204  0.12864204  0.21517881  1
  C  C83  1  0.24982252  0.23038689  0.18919453  1
  C  C84  1  0.24800907  0.23928662  0.30768894  1
  C  C85  1  0.24982723  0.19556944  0.48883949  1
  C  C86  1  0.25005061  0.10988897  0.53584452  1
  C  C87  1  0.25086846  0.12990276  0.60103299  1
  C  C88  1  0.25157905  0.23740103  0.62489992  1
  C  C89  1  0.25202777  0.26073363  0.69231784  1
  C  C90  1  0.26962083  0.75025776  0.81080006  1
  C  C91  1  0.37136067  0.75023171  0.78482125  1
  C  C92  1  0.36763948  0.75109339  0.71566779  1
  C  C93  1  0.45444884  0.75048079  0.67039308  1
  C  C94  1  0.43387103  0.75041228  0.60496186  1
  C  C95  1  0.32646108  0.75088989  0.58013248  1
  C  C96  1  0.30444118  0.75022863  0.51115756  1
  C  C97  1  0.39009942  0.75001559  0.46415114  1
  C  C98  1  0.37008731  0.74919392  0.39896246  1
  C  C99  1  0.26258309  0.74846227  0.37510385  1
  C  C100  1  0.17352120  0.74919070  0.41986139  1
  C  C101  1  0.06610792  0.74961658  0.39503263  1
  C  C102  1  0.04552961  0.74951772  0.32960315  1
  C  C103  1  0.13233709  0.74894433  0.28432666  1
  C  C104  1  0.12861549  0.74978364  0.21517516  1
  C  C105  1  0.23035063  0.74982962  0.18919438  1
  C  C106  1  0.23925157  0.74801642  0.30768527  1
  C  C107  1  0.19554113  0.74986195  0.48883578  1
  C  C108  1  0.10988211  0.75008058  0.53584149  1
  C  C109  1  0.12989273  0.75092385  0.60102845  1
  C  C110  1  0.23739586  0.75164669  0.62488934  1
  C  C111  1  0.26072785  0.75209047  0.69230905  1
  C  C112  1  0.73036784  0.24978084  0.18918154  1
  C  C113  1  0.62862970  0.24978795  0.21516169  1
  C  C114  1  0.63235227  0.24893222  0.28431415  1
  C  C115  1  0.54553245  0.24952280  0.32958435  1
  C  C116  1  0.56611042  0.24961291  0.39502248  1
  C  C117  1  0.67351650  0.24917230  0.41985214  1
  C  C118  1  0.69552773  0.24984754  0.48882991  1
  C  C119  1  0.60987194  0.25011299  0.53583350  1
  C  C120  1  0.62987273  0.25090773  0.60102605  1
  C  C121  1  0.73738103  0.25156674  0.62488988  1
  C  C122  1  0.82643640  0.25082294  0.58013418  1
  C  C123  1  0.93385459  0.25036680  0.60496588  1
  C  C124  1  0.95442425  0.25045400  0.67039900  1
  C  C125  1  0.86761640  0.25103257  0.71567131  1
  C  C126  1  0.87133600  0.25017847  0.78482838  1
  C  C127  1  0.76958985  0.25015177  0.81080763  1
  C  C128  1  0.76070155  0.25198872  0.69231054  1
  C  C129  1  0.80442990  0.25017780  0.51115654  1
  C  C130  1  0.89008730  0.24996046  0.46414823  1
  C  C131  1  0.87008305  0.24914417  0.39896532  1
  C  C132  1  0.76258321  0.24841788  0.37509780  1
  C  C133  1  0.73925475  0.24795982  0.30767378  1
  C  C134  1  0.74981131  0.73041461  0.18918521  1
  C  C135  1  0.74981883  0.62866827  0.21516609  1
  C  C136  1  0.74894474  0.63238811  0.28432185  1
  C  C137  1  0.74953879  0.54556605  0.32958996  1
  C  C138  1  0.74961252  0.56613392  0.39502477  1
  C  C139  1  0.74915174  0.67355874  0.41985401  1
  C  C140  1  0.74980838  0.69555638  0.48883389  1
  C  C141  1  0.75001562  0.60988700  0.53583426  1
  C  C142  1  0.75082143  0.62987755  0.60102518  1
  C  C143  1  0.75154815  0.73739129  0.62489361  1
  C  C144  1  0.75082608  0.82646193  0.58014138  1
  C  C145  1  0.75038440  0.93388418  0.60497209  1
  C  C146  1  0.75047220  0.95444917  0.67040803  1
  C  C147  1  0.75104716  0.86762875  0.71567553  1
  C  C148  1  0.75019008  0.87134780  0.78483080  1
  C  C149  1  0.75014179  0.76959964  0.81081163  1
  C  C150  1  0.75198679  0.76070800  0.69231603  1
  C  C151  1  0.75017225  0.80446621  0.51116143  1
  C  C152  1  0.74996569  0.89013388  0.46416178  1
  C  C153  1  0.74913312  0.87014117  0.39897075  1
  C  C154  1  0.74840549  0.76262987  0.37510212  1
  C  C155  1  0.74796015  0.73930730  0.30767980  1
  S  S156  1  0.24840936  0.33402567  0.24486795  1
  S  S157  1  0.25165000  0.16598852  0.75513794  1
  S  S158  1  0.33398711  0.74843312  0.24486743  1
  S  S159  1  0.16599055  0.75174748  0.75512508  1
  S  S160  1  0.66596757  0.25158560  0.75512904  1
  S  S161  1  0.83399543  0.24831416  0.24485809  1
  S  S162  1  0.75156558  0.66596398  0.75513580  1
  S  S163  1  0.74832359  0.83405029  0.24485963  1
  I  I164  1  0.25043067  0.04520421  1.00061189  1
  I  I165  1  0.24991778  0.45476077  -0.00059919  1
  I  I166  1  0.74981418  0.95480704  -0.00061548  1
  I  I167  1  0.75055884  0.54516130  1.00062256  1
  I  I168  1  0.95476578  0.24926044  -0.00063142  1
  I  I169  1  0.04520171  0.74989640  1.00062174  1
  I  I170  1  0.54514132  0.25033469  1.00061424  1
  I  I171  1  0.45470345  0.74971783  -0.00060816  1
  I  I172  1  0.00928075  0.99679792  0.84679445  1
  I  I173  1  0.99085981  0.00300838  0.15314670  1
  I  I174  1  0.99698910  0.50914285  0.84681886  1
  I  I175  1  0.00313975  0.49063928  0.15318613  1
  I  I176  1  0.49694467  0.00915142  0.84686912  1
  I  I177  1  0.50313471  0.99073576  0.15322301  1
  I  I178  1  0.50923723  0.49694826  0.84688752  1
  I  I179  1  0.49075897  0.50313478  0.15324953  1
  N  N180  1  0.25092766  0.24727905  0.88046029  1
  N  N181  1  0.24906949  0.25274064  0.11954835  1
  N  N182  1  0.24726174  0.75098792  0.88044379  1
  N  N183  1  0.25270525  0.74912319  0.11955000  1
  N  N184  1  0.75272607  0.24906172  0.11953619  1
  N  N185  1  0.74723043  0.25091571  0.88045049  1
  N  N186  1  0.74908318  0.75275996  0.11953885  1
  N  N187  1  0.75086575  0.74725291  0.88045772  1
