# generated using pymatgen
data_H22PbC24(I2N)2
_symmetry_space_group_name_H-M   'P 1'
_cell_length_a   12.27591533
_cell_length_b   12.30283494
_cell_length_c   22.87225358
_cell_angle_alpha   88.39591210
_cell_angle_beta   88.63642159
_cell_angle_gamma   90.43378762
_symmetry_Int_Tables_number   1
_chemical_formula_structural   H22PbC24(I2N)2
_chemical_formula_sum   'H88 Pb4 C96 I16 N8'
_cell_volume   3451.91473009
_cell_formula_units_Z   4
loop_
 _symmetry_equiv_pos_site_id
 _symmetry_equiv_pos_as_xyz
  1  'x, y, z'
loop_
 _atom_site_type_symbol
 _atom_site_label
 _atom_site_symmetry_multiplicity
 _atom_site_fract_x
 _atom_site_fract_y
 _atom_site_fract_z
 _atom_site_occupancy
  H  H0  1  0.28606259  0.27096799  0.90765078  1
  H  H1  1  0.19935382  0.37340060  0.90148283  1
  H  H2  1  0.33493732  0.39584090  0.89321212  1
  H  H3  1  0.27866629  0.49859626  0.80102520  1
  H  H4  1  0.27806047  0.47434932  0.69452352  1
  H  H5  1  0.19088034  0.43981902  0.61606950  1
  H  H6  1  0.18621270  0.41589589  0.51089931  1
  H  H7  1  0.25361145  0.06366689  0.45395089  1
  H  H8  1  0.24892855  0.03763645  0.34934453  1
  H  H9  1  0.17838695  0.02466031  0.26996102  1
  H  H10  1  0.16978747  0.99450232  0.16457806  1
  H  H11  1  0.21388122  0.14419430  0.09243313  1
  H  H12  1  0.30724687  0.31926920  0.07993522  1
  H  H13  1  0.19459254  0.38294375  0.10637464  1
  H  H14  1  0.31902593  0.40705564  0.13374286  1
  H  H15  1  0.28615994  0.35593069  0.23334093  1
  H  H16  1  0.23735675  0.38552004  0.31957506  1
  H  H17  1  0.25255033  0.41167761  0.42392082  1
  H  H18  1  0.33382425  0.10044095  0.53273939  1
  H  H19  1  0.33731234  0.12428181  0.63824313  1
  H  H20  1  0.24733726  0.12625148  0.72375045  1
  H  H21  1  0.24911581  0.15131279  0.82990007  1
  H  H22  1  0.27476155  0.72444067  0.90954642  1
  H  H23  1  0.36760226  0.82337729  0.89599061  1
  H  H24  1  0.40400667  0.69109753  0.89800178  1
  H  H25  1  0.50035202  0.73163246  0.80237991  1
  H  H26  1  0.47576425  0.72359939  0.69597314  1
  H  H27  1  0.44212101  0.80777267  0.61535617  1
  H  H28  1  0.41795924  0.81448398  0.51000138  1
  H  H29  1  0.06421135  0.74796139  0.45391248  1
  H  H30  1  0.03862946  0.75284459  0.34922924  1
  H  H31  1  0.02538844  0.81993269  0.26820801  1
  H  H32  1  0.99222487  0.81944501  0.16298913  1
  H  H33  1  0.13956961  0.77034171  0.09241681  1
  H  H34  1  0.31806467  0.69217780  0.08133599  1
  H  H35  1  0.38273279  0.80357598  0.10630930  1
  H  H36  1  0.40594344  0.67848384  0.13551449  1
  H  H37  1  0.35777812  0.71954303  0.23482302  1
  H  H38  1  0.38731656  0.76689299  0.31990586  1
  H  H39  1  0.41311439  0.75032598  0.42476640  1
  H  H40  1  0.09989202  0.66600742  0.53449287  1
  H  H41  1  0.12385087  0.66027430  0.64015719  1
  H  H42  1  0.12687843  0.74649052  0.72339053  1
  H  H43  1  0.15223600  0.75206082  0.82963420  1
  H  H44  1  0.74174816  0.17581871  0.09840827  1
  H  H45  1  0.64875387  0.27497794  0.09102717  1
  H  H46  1  0.61014859  0.14596661  0.11009710  1
  H  H47  1  0.50626563  0.21209911  0.19639372  1
  H  H48  1  0.52619498  0.22359366  0.30306782  1
  H  H49  1  0.55894024  0.31182917  0.38276705  1
  H  H50  1  0.58231869  0.31475435  0.48831364  1
  H  H51  1  0.93461180  0.24784732  0.54642144  1
  H  H52  1  0.95949096  0.25142160  0.65119908  1
  H  H53  1  0.97386439  0.31061087  0.73194591  1
  H  H54  1  1.00251707  0.30749750  0.83758324  1
  H  H55  1  0.84886053  0.27009999  0.90799412  1
  H  H56  1  0.67066759  0.18120474  0.91701598  1
  H  H57  1  0.61126410  0.29993247  0.89462016  1
  H  H58  1  0.58017674  0.18115933  0.86353211  1
  H  H59  1  0.63647974  0.21740006  0.76442082  1
  H  H60  1  0.61060029  0.26244591  0.67905430  1
  H  H61  1  0.58554304  0.24763154  0.57466813  1
  H  H62  1  0.89838121  0.16756985  0.46746940  1
  H  H63  1  0.87502046  0.16546219  0.36178980  1
  H  H64  1  0.87511212  0.25860845  0.27781536  1
  H  H65  1  0.85433582  0.24560191  0.17135119  1
  H  H66  1  0.80307510  0.72263291  0.09021028  1
  H  H67  1  0.70609276  0.62671537  0.09999788  1
  H  H68  1  0.83864985  0.59647420  0.10849804  1
  H  H69  1  0.77479317  0.50255584  0.19941242  1
  H  H70  1  0.77282497  0.52813214  0.30564837  1
  H  H71  1  0.69047992  0.56163249  0.38439395  1
  H  H72  1  0.68411578  0.58338695  0.48969583  1
  H  H73  1  0.75141532  0.93493413  0.54714437  1
  H  H74  1  0.74687912  0.95876428  0.65195786  1
  H  H75  1  0.68042290  0.97020874  0.73261877  1
  H  H76  1  0.68727241  0.00349418  0.83784728  1
  H  H77  1  0.73504432  0.85624515  0.90822387  1
  H  H78  1  0.82294796  0.68591457  0.91853314  1
  H  H79  1  0.71335843  0.61313478  0.89828613  1
  H  H80  1  0.83801613  0.59640524  0.86599437  1
  H  H81  1  0.78607166  0.63970021  0.76566402  1
  H  H82  1  0.73354147  0.61022730  0.68022617  1
  H  H83  1  0.74898893  0.58640042  0.57526131  1
  H  H84  1  0.83305419  0.90119774  0.46662619  1
  H  H85  1  0.83886307  0.87945030  0.36102250  1
  H  H86  1  0.76244995  0.87680312  0.27542466  1
  H  H87  1  0.77048158  0.85060614  0.16911031  1
  Pb  Pb88  1  0.00085439  0.01087828  0.98573429  1
  Pb  Pb89  1  0.00553817  0.50196896  0.00108892  1
  Pb  Pb90  1  0.48715431  0.98986889  0.99914883  1
  Pb  Pb91  1  0.51290451  0.49701779  0.00888839  1
  C  C92  1  0.26655125  0.32615235  0.82097592  1
  C  C93  1  0.27267901  0.41737236  0.78358263  1
  C  C94  1  0.27114060  0.40281698  0.72356500  1
  C  C95  1  0.26372539  0.29811361  0.70033821  1
  C  C96  1  0.26339360  0.28367275  0.63627420  1
  C  C97  1  0.22306222  0.36495854  0.59826136  1
  C  C98  1  0.22068146  0.35128512  0.53812847  1
  C  C99  1  0.25887076  0.25559456  0.51239144  1
  C  C100  1  0.25425538  0.24006646  0.44848784  1
  C  C101  1  0.25258093  0.13549107  0.42492964  1
  C  C102  1  0.24789263  0.12051800  0.36497958  1
  C  C103  1  0.24232757  0.20913139  0.32479730  1
  C  C104  1  0.23470207  0.19200923  0.26107025  1
  C  C105  1  0.20167008  0.09097486  0.23958313  1
  C  C106  1  0.19576301  0.07316328  0.17994422  1
  C  C107  1  0.22002315  0.15662681  0.13924404  1
  C  C108  1  0.24982708  0.25696463  0.16036927  1
  C  C109  1  0.25916735  0.27612264  0.21968821  1
  C  C110  1  0.24339107  0.31373655  0.34834769  1
  C  C111  1  0.25014851  0.32877058  0.40827565  1
  C  C112  1  0.30070596  0.17494695  0.55049049  1
  C  C113  1  0.30274932  0.18844532  0.61069074  1
  C  C114  1  0.25564891  0.20840824  0.73976176  1
  C  C115  1  0.25632895  0.22182630  0.80008892  1
  C  C116  1  0.32743672  0.73977773  0.82157701  1
  C  C117  1  0.41881946  0.73379062  0.78463019  1
  C  C118  1  0.40413397  0.73030718  0.72464316  1
  C  C119  1  0.29918313  0.73406561  0.70096557  1
  C  C120  1  0.28490612  0.73389595  0.63685884  1
  C  C121  1  0.36689488  0.77523147  0.59811063  1
  C  C122  1  0.35301353  0.77905403  0.53792829  1
  C  C123  1  0.25652015  0.74143116  0.51288564  1
  C  C124  1  0.24108147  0.74790221  0.44889706  1
  C  C125  1  0.13632144  0.74971532  0.42510486  1
  C  C126  1  0.12162587  0.75486264  0.36502311  1
  C  C127  1  0.21055874  0.76104946  0.32493919  1
  C  C128  1  0.19306326  0.76633426  0.26104350  1
  C  C129  1  0.09108568  0.79551960  0.23869121  1
  C  C130  1  0.07134684  0.79528744  0.17909622  1
  C  C131  1  0.15393327  0.76955805  0.13922370  1
  C  C132  1  0.25607440  0.74623435  0.16089497  1
  C  C133  1  0.27690289  0.74230384  0.22039363  1
  C  C134  1  0.31533143  0.76077302  0.34870883  1
  C  C135  1  0.33013336  0.75323783  0.40883930  1
  C  C136  1  0.17518568  0.69850707  0.55168519  1
  C  C137  1  0.18888003  0.69500903  0.61195959  1
  C  C138  1  0.20921575  0.74116252  0.73991034  1
  C  C139  1  0.22270060  0.74467988  0.80018237  1
  C  C140  1  0.67954180  0.22665903  0.17837049  1
  C  C141  1  0.58671386  0.22307950  0.21457112  1
  C  C142  1  0.59872960  0.23006954  0.27472250  1
  C  C143  1  0.70250947  0.23995188  0.29911768  1
  C  C144  1  0.71574941  0.24009461  0.36325784  1
  C  C145  1  0.63382646  0.27959413  0.40092737  1
  C  C146  1  0.64714527  0.28095800  0.46113428  1
  C  C147  1  0.74286904  0.24249978  0.48713597  1
  C  C148  1  0.75782946  0.24666981  0.55103910  1
  C  C149  1  0.86237232  0.24844683  0.57509700  1
  C  C150  1  0.87665953  0.25261814  0.63512265  1
  C  C151  1  0.78736551  0.25767174  0.67478319  1
  C  C152  1  0.80329318  0.26295351  0.73865155  1
  C  C153  1  0.90545057  0.28941883  0.76135665  1
  C  C154  1  0.92219285  0.28952785  0.82125356  1
  C  C155  1  0.83639118  0.26895823  0.86099779  1
  C  C156  1  0.73463102  0.24635325  0.83865833  1
  C  C157  1  0.71702149  0.24065153  0.77904710  1
  C  C158  1  0.68286236  0.25698365  0.65066952  1
  C  C159  1  0.66843507  0.25047870  0.59070776  1
  C  C160  1  0.82393997  0.20103995  0.44941714  1
  C  C161  1  0.81082374  0.19999248  0.38917497  1
  C  C162  1  0.79369610  0.24831227  0.26074509  1
  C  C163  1  0.78281075  0.24202260  0.20047605  1
  C  C164  1  0.77189941  0.67484674  0.17889015  1
  C  C165  1  0.77157073  0.58413482  0.21664439  1
  C  C166  1  0.76975298  0.59952102  0.27650989  1
  C  C167  1  0.76706405  0.70466001  0.29937565  1
  C  C168  1  0.76476914  0.71882338  0.36345992  1
  C  C169  1  0.72306339  0.63640704  0.40187824  1
  C  C170  1  0.71947975  0.64886313  0.46211363  1
  C  C171  1  0.75742492  0.74450406  0.48760882  1
  C  C172  1  0.75127282  0.75850481  0.55167364  1
  C  C173  1  0.74952207  0.86256411  0.57581239  1
  C  C174  1  0.74464172  0.87620615  0.63594539  1
  C  C175  1  0.73882994  0.78668833  0.67577585  1
  C  C176  1  0.73423812  0.80299365  0.73977621  1
  C  C177  1  0.70521242  0.90453063  0.76216816  1
  C  C178  1  0.70715512  0.92379028  0.82166892  1
  C  C179  1  0.73331746  0.84128286  0.86153182  1
  C  C180  1  0.75795027  0.73995236  0.83985065  1
  C  C181  1  0.76076394  0.71938607  0.78032423  1
  C  C182  1  0.73912472  0.68262089  0.65164111  1
  C  C183  1  0.74621855  0.66891101  0.59143971  1
  C  C184  1  0.80029332  0.82647733  0.44915475  1
  C  C185  1  0.80371254  0.81407346  0.38882109  1
  C  C186  1  0.76627096  0.79414821  0.25961029  1
  C  C187  1  0.76896976  0.78003277  0.19923863  1
  I  I188  1  0.24287892  0.91567737  0.00321325  1
  I  I189  1  0.26054551  0.56329851  0.00277201  1
  I  I190  1  0.73856130  0.05576248  0.98393166  1
  I  I191  1  0.75522691  0.41933368  0.00810752  1
  I  I192  1  0.08108696  0.25942797  0.99195868  1
  I  I193  1  0.93258259  0.75552524  0.99967505  1
  I  I194  1  0.43759288  0.24478568  0.00593504  1
  I  I195  1  0.57728713  0.74185566  0.00120882  1
  I  I196  1  0.02048175  0.99642535  0.85244389  1
  I  I197  1  0.91707459  0.03385065  0.12348395  1
  I  I198  1  0.03805020  0.54032138  0.86256966  1
  I  I199  1  0.01391023  0.48235940  0.13925659  1
  I  I200  1  0.44251885  0.02118195  0.86007957  1
  I  I201  1  0.49760674  0.97294696  0.13745250  1
  I  I202  1  0.52432674  0.49600187  0.86840250  1
  I  I203  1  0.50757232  0.50141850  0.15088237  1
  N  N204  1  0.27162947  0.34224052  0.88422009  1
  N  N205  1  0.26837783  0.34702094  0.11778326  1
  N  N206  1  0.34394527  0.74480255  0.88483118  1
  N  N207  1  0.34577974  0.72928416  0.11873703  1
  N  N208  1  0.66916966  0.20656767  0.11573799  1
  N  N209  1  0.64352784  0.22724907  0.88026673  1
  N  N210  1  0.77896846  0.65515174  0.11600315  1
  N  N211  1  0.78335214  0.65312057  0.88263868  1
