# generated using pymatgen
data_H8PbC8S2(IN)4
_symmetry_space_group_name_H-M   'P 1'
_cell_length_a   12.34964255
_cell_length_b   12.40833470
_cell_length_c   14.24461715
_cell_angle_alpha   90.00546243
_cell_angle_beta   89.99628174
_cell_angle_gamma   89.99356285
_symmetry_Int_Tables_number   1
_chemical_formula_structural   H8PbC8S2(IN)4
_chemical_formula_sum   'H32 Pb4 C32 S8 I16 N16'
_cell_volume   2182.82371106
_cell_formula_units_Z   4
loop_
 _symmetry_equiv_pos_site_id
 _symmetry_equiv_pos_as_xyz
  1  'x, y, z'
loop_
 _atom_site_type_symbol
 _atom_site_label
 _atom_site_symmetry_multiplicity
 _atom_site_fract_x
 _atom_site_fract_y
 _atom_site_fract_z
 _atom_site_occupancy
  H  H0  1  0.27263380  0.19514616  0.85934742  1
  H  H1  1  0.19448293  0.08518256  0.83602382  1
  H  H2  1  0.33176888  0.08063552  0.82179733  1
  H  H3  1  0.24794317  0.44647595  0.58927627  1
  H  H4  1  0.24796663  0.44639146  0.41064164  1
  H  H5  1  0.33176410  0.08034695  0.17831539  1
  H  H6  1  0.19446097  0.08487383  0.16410972  1
  H  H7  1  0.27262996  0.19481968  0.14070825  1
  H  H8  1  0.19626214  0.72785385  0.85893898  1
  H  H9  1  0.08419981  0.80316442  0.83663880  1
  H  H10  1  0.08212518  0.66652167  0.82227973  1
  H  H11  1  0.44775701  0.75206291  0.58924289  1
  H  H12  1  0.44775099  0.75206011  0.41064990  1
  H  H13  1  0.08214344  0.66663758  0.17760182  1
  H  H14  1  0.08415375  0.80329723  0.16337397  1
  H  H15  1  0.19625118  0.72806893  0.14098553  1
  H  H16  1  0.80547569  0.27347478  0.14077947  1
  H  H17  1  0.92093428  0.33114619  0.17843627  1
  H  H18  1  0.91542582  0.19476568  0.16344706  1
  H  H19  1  0.55261384  0.24787585  0.41066839  1
  H  H20  1  0.55258300  0.24776318  0.58925021  1
  H  H21  1  0.91544302  0.19461964  0.83646467  1
  H  H22  1  0.92070773  0.33102185  0.82158484  1
  H  H23  1  0.80534077  0.27309648  0.85918377  1
  H  H24  1  0.72728549  0.80504210  0.14094854  1
  H  H25  1  0.66758982  0.91925096  0.17828543  1
  H  H26  1  0.80482182  0.91536382  0.16363646  1
  H  H27  1  0.75220294  0.55370834  0.41056095  1
  H  H28  1  0.75219914  0.55363240  0.58922232  1
  H  H29  1  0.80476815  0.91494127  0.83650662  1
  H  H30  1  0.66756382  0.91911293  0.82177086  1
  H  H31  1  0.72698063  0.80476376  0.85904740  1
  Pb  Pb32  1  0.00381455  0.00337941  0.99998972  1
  Pb  Pb33  1  0.98944823  0.50386226  0.99992904  1
  Pb  Pb34  1  0.50013344  0.00758224  0.00005501  1
  Pb  Pb35  1  0.49746154  0.51154326  0.00019681  1
  C  C36  1  0.25257712  0.16332135  0.71741141  1
  C  C37  1  0.24655404  0.27341794  0.59769974  1
  C  C38  1  0.24594531  0.37221565  0.54854692  1
  C  C39  1  0.24595510  0.37217034  0.45141108  1
  C  C40  1  0.24656150  0.27332419  0.40231460  1
  C  C41  1  0.25257133  0.16311624  0.28265954  1
  C  C42  1  0.24861472  0.17314733  0.45089702  1
  C  C43  1  0.24861525  0.17319636  0.54917329  1
  C  C44  1  0.16325278  0.74685971  0.71740845  1
  C  C45  1  0.27381423  0.75332233  0.59762975  1
  C  C46  1  0.37313935  0.75405432  0.54852184  1
  C  C47  1  0.37313802  0.75405658  0.45138902  1
  C  C48  1  0.27381083  0.75333469  0.40229639  1
  C  C49  1  0.16324336  0.74691821  0.28253454  1
  C  C50  1  0.17307799  0.75124631  0.45081487  1
  C  C51  1  0.17308042  0.75123772  0.54912836  1
  C  C52  1  0.83736609  0.25238312  0.28261929  1
  C  C53  1  0.72658320  0.24627258  0.40226754  1
  C  C54  1  0.62724857  0.24573357  0.45138023  1
  C  C55  1  0.62723489  0.24567475  0.54854975  1
  C  C56  1  0.72655371  0.24616609  0.59767681  1
  C  C57  1  0.83730150  0.25220310  0.71733669  1
  C  C58  1  0.82723924  0.24819276  0.54911259  1
  C  C59  1  0.82725320  0.24824568  0.45084570  1
  C  C60  1  0.74740672  0.83704799  0.28267254  1
  C  C61  1  0.75356287  0.72678777  0.40227850  1
  C  C62  1  0.75420698  0.62792752  0.45135325  1
  C  C63  1  0.75419994  0.62788990  0.54849556  1
  C  C64  1  0.75353666  0.72670343  0.59765223  1
  C  C65  1  0.74731788  0.83685955  0.71735007  1
  C  C66  1  0.75148378  0.82692248  0.54913807  1
  C  C67  1  0.75150074  0.82696466  0.45087648  1
  S  S68  1  0.25489973  0.06709839  0.37233328  1
  S  S69  1  0.25492209  0.06722030  0.62779346  1
  S  S70  1  0.06663239  0.74463860  0.37208760  1
  S  S71  1  0.06663348  0.74460817  0.62786485  1
  S  S72  1  0.93380112  0.25450063  0.62767252  1
  S  S73  1  0.93383956  0.25461741  0.37229895  1
  S  S74  1  0.74501922  0.93293585  0.62773844  1
  S  S75  1  0.74508139  0.93304984  0.37235849  1
  I  I76  1  0.24875380  0.92026820  0.99996408  1
  I  I77  1  0.24036675  0.58087997  0.99997159  1
  I  I78  1  0.75483439  0.07458264  -0.00000686  1
  I  I79  1  0.75040724  0.40710228  0.99996515  1
  I  I80  1  0.07604639  0.24889632  0.99999043  1
  I  I81  1  0.92329746  0.75605405  -0.00000779  1
  I  I82  1  0.41235534  0.24639850  1.00008189  1
  I  I83  1  0.58735375  0.75808164  0.00012126  1
  I  I84  1  0.00056220  0.99921297  0.77730127  1
  I  I85  1  0.00057476  0.99930340  0.22272056  1
  I  I86  1  0.99834029  0.50039949  0.77435533  1
  I  I87  1  0.99833789  0.50054718  0.22553579  1
  I  I88  1  0.49974635  1.00006933  0.77414079  1
  I  I89  1  0.49988602  1.00025171  0.22602391  1
  I  I90  1  0.50235177  0.49795968  0.77852289  1
  I  I91  1  0.50238366  0.49806892  0.22195316  1
  N  N92  1  0.26157577  0.12949024  0.81423500  1
  N  N93  1  0.24820732  0.26374510  0.69442950  1
  N  N94  1  0.24821801  0.26356263  0.30559075  1
  N  N95  1  0.26156328  0.12920124  0.18585495  1
  N  N96  1  0.12978422  0.73730599  0.81435526  1
  N  N97  1  0.26413625  0.75138093  0.69434354  1
  N  N98  1  0.26412783  0.75142850  0.30558421  1
  N  N99  1  0.12977094  0.73743478  0.18558513  1
  N  N100  1  0.87143158  0.26160407  0.18584070  1
  N  N101  1  0.73643299  0.24803390  0.30553663  1
  N  N102  1  0.73637277  0.24785308  0.69440889  1
  N  N103  1  0.87133057  0.26140499  0.81412648  1
  N  N104  1  0.73808614  0.87083146  0.18589981  1
  N  N105  1  0.75180243  0.73658262  0.30556314  1
  N  N106  1  0.75173900  0.73641657  0.69437660  1
  N  N107  1  0.73796936  0.87056854  0.81415096  1
