# generated using pymatgen
data_H18PbC22(I2N)2
_symmetry_space_group_name_H-M   'P 1'
_cell_length_a   12.24391809
_cell_length_b   12.26629747
_cell_length_c   20.05074318
_cell_angle_alpha   90.00114705
_cell_angle_beta   89.99629016
_cell_angle_gamma   90.00379032
_symmetry_Int_Tables_number   1
_chemical_formula_structural   H18PbC22(I2N)2
_chemical_formula_sum   'H72 Pb4 C88 I16 N8'
_cell_volume   3011.37181005
_cell_formula_units_Z   4
loop_
 _symmetry_equiv_pos_site_id
 _symmetry_equiv_pos_as_xyz
  1  'x, y, z'
loop_
 _atom_site_type_symbol
 _atom_site_label
 _atom_site_symmetry_multiplicity
 _atom_site_fract_x
 _atom_site_fract_y
 _atom_site_fract_z
 _atom_site_occupancy
  H  H0  1  0.29398330  0.42928184  0.86669287  1
  H  H1  1  0.27444777  0.31216600  0.90703338  1
  H  H2  1  0.16556421  0.38424386  0.87894279  1
  H  H3  1  0.24560302  0.14279326  0.85211011  1
  H  H4  1  0.24708127  0.04290285  0.74542052  1
  H  H5  1  0.24964306  0.04466714  0.62232186  1
  H  H6  1  0.25036624  0.04529322  0.49994784  1
  H  H7  1  0.25120176  0.04456726  0.37756955  1
  H  H8  1  0.24992333  0.04269965  0.25448411  1
  H  H9  1  0.24489631  0.14245627  0.14780065  1
  H  H10  1  0.31712076  0.38422271  0.11609287  1
  H  H11  1  0.20460787  0.31163546  0.09430635  1
  H  H12  1  0.18960216  0.42777509  0.13610432  1
  H  H13  1  0.24443293  0.45097057  0.25202006  1
  H  H14  1  0.24940185  0.45314599  0.37609392  1
  H  H15  1  0.25029646  0.45387827  0.49988025  1
  H  H16  1  0.25059972  0.45324766  0.62366690  1
  H  H17  1  0.25004481  0.45124880  0.74780009  1
  H  H18  1  0.42956141  0.70710351  0.86691994  1
  H  H19  1  0.31212831  0.72595740  0.90706885  1
  H  H20  1  0.38392615  0.83505720  0.87909282  1
  H  H21  1  0.14247428  0.75479217  0.85203593  1
  H  H22  1  0.04249873  0.75310197  0.74534017  1
  H  H23  1  0.04432504  0.75051218  0.62227069  1
  H  H24  1  0.04497471  0.74968736  0.49991010  1
  H  H25  1  0.04422392  0.74882318  0.37755944  1
  H  H26  1  0.04223674  0.75015375  0.25454567  1
  H  H27  1  0.14202178  0.75544170  0.14783655  1
  H  H28  1  0.38446054  0.68403906  0.11576135  1
  H  H29  1  0.31130658  0.79609500  0.09427022  1
  H  H30  1  0.42753836  0.81148219  0.13594544  1
  H  H31  1  0.45127999  0.75568889  0.25184544  1
  H  H32  1  0.45356288  0.75048012  0.37600691  1
  H  H33  1  0.45431702  0.74954425  0.49984359  1
  H  H34  1  0.45366681  0.74920902  0.62366065  1
  H  H35  1  0.45161565  0.75001108  0.74783527  1
  H  H36  1  0.57186571  0.18978562  0.13605522  1
  H  H37  1  0.68801636  0.20602585  0.09425791  1
  H  H38  1  0.61463957  0.31755940  0.11656572  1
  H  H39  1  0.85746245  0.24473711  0.14786446  1
  H  H40  1  0.95752551  0.24961706  0.25448141  1
  H  H41  1  0.95576901  0.25109347  0.37758529  1
  H  H42  1  0.95507892  0.25032037  0.49997907  1
  H  H43  1  0.95567061  0.24952444  0.62236907  1
  H  H44  1  0.95731413  0.24693039  0.74548383  1
  H  H45  1  0.85710403  0.24559798  0.85212853  1
  H  H46  1  0.61539174  0.16619237  0.87904391  1
  H  H47  1  0.68715148  0.27515649  0.90692177  1
  H  H48  1  0.56987719  0.29410924  0.86650388  1
  H  H49  1  0.54820240  0.25028448  0.74772241  1
  H  H50  1  0.54631183  0.25069014  0.62365376  1
  H  H51  1  0.54572093  0.25035524  0.49992729  1
  H  H52  1  0.54641804  0.24944632  0.37620712  1
  H  H53  1  0.54848209  0.24466768  0.25219203  1
  H  H54  1  0.81139292  0.57252861  0.13608072  1
  H  H55  1  0.79447778  0.68821119  0.09426375  1
  H  H56  1  0.68310445  0.61436158  0.11647329  1
  H  H57  1  0.75535616  0.85723224  0.14790397  1
  H  H58  1  0.75023716  0.95706271  0.25449429  1
  H  H59  1  0.74877686  0.95529329  0.37757425  1
  H  H60  1  0.74960153  0.95461349  0.49995905  1
  H  H61  1  0.75036925  0.95522336  0.62234707  1
  H  H62  1  0.75291058  0.95691665  0.74545672  1
  H  H63  1  0.75456817  0.85698194  0.85209277  1
  H  H64  1  0.83465038  0.61567204  0.87902137  1
  H  H65  1  0.72560900  0.68740956  0.90702940  1
  H  H66  1  0.70639424  0.57038168  0.86674540  1
  H  H67  1  0.74995475  0.54856620  0.74776540  1
  H  H68  1  0.74932366  0.54663617  0.62366927  1
  H  H69  1  0.74964611  0.54601688  0.49993026  1
  H  H70  1  0.75052305  0.54670638  0.37619228  1
  H  H71  1  0.75543056  0.54877755  0.25214262  1
  Pb  Pb72  1  0.99926833  0.99587618  0.00157939  1
  Pb  Pb73  1  0.00020302  0.49593666  0.00241779  1
  Pb  Pb74  1  0.50509472  0.99763261  0.00232637  1
  Pb  Pb75  1  0.49767466  0.49801147  0.99694696  1
  C  C76  1  0.24949430  0.30238385  0.80384003  1
  C  C77  1  0.24820906  0.18666855  0.80486671  1
  C  C78  1  0.24869871  0.13170841  0.74550955  1
  C  C79  1  0.24993834  0.18867336  0.68332198  1
  C  C80  1  0.25007211  0.13370629  0.62256381  1
  C  C81  1  0.25040580  0.18993407  0.56108379  1
  C  C82  1  0.25053521  0.13435174  0.49993799  1
  C  C83  1  0.25086506  0.18988499  0.43876903  1
  C  C84  1  0.25121741  0.13361093  0.37730835  1
  C  C85  1  0.25090051  0.18853556  0.31654130  1
  C  C86  1  0.25009004  0.13151490  0.25436429  1
  C  C87  1  0.24748827  0.18642499  0.19502894  1
  C  C88  1  0.24548848  0.30212655  0.19596168  1
  C  C89  1  0.24704536  0.36213314  0.25346848  1
  C  C90  1  0.24993390  0.30738512  0.31633865  1
  C  C91  1  0.25016858  0.36408114  0.37661876  1
  C  C92  1  0.25065352  0.30904916  0.43863110  1
  C  C93  1  0.25049536  0.36477926  0.49989980  1
  C  C94  1  0.25052184  0.30909732  0.56118538  1
  C  C95  1  0.25060331  0.36417616  0.62318105  1
  C  C96  1  0.25039765  0.30753768  0.68347701  1
  C  C97  1  0.25021427  0.36234604  0.74636004  1
  C  C98  1  0.30242549  0.75090451  0.80384768  1
  C  C99  1  0.18649866  0.75213821  0.80481964  1
  C  C100  1  0.13146980  0.75149278  0.74545111  1
  C  C101  1  0.18858526  0.75013520  0.68328477  1
  C  C102  1  0.13353266  0.74999144  0.62252225  1
  C  C103  1  0.18987834  0.74957058  0.56104849  1
  C  C104  1  0.13420002  0.74945688  0.49990321  1
  C  C105  1  0.18983351  0.74908348  0.43873609  1
  C  C106  1  0.13343500  0.74877007  0.37729120  1
  C  C107  1  0.18842692  0.74912450  0.31650667  1
  C  C108  1  0.13120069  0.75004151  0.25439261  1
  C  C109  1  0.18614548  0.75281931  0.19500124  1
  C  C110  1  0.30207556  0.75487088  0.19589418  1
  C  C111  1  0.36224200  0.75309973  0.25333235  1
  C  C112  1  0.30750786  0.75005231  0.31626581  1
  C  C113  1  0.36432377  0.74973235  0.37654043  1
  C  C114  1  0.30922929  0.74924754  0.43857764  1
  C  C115  1  0.36504851  0.74937889  0.49985845  1
  C  C116  1  0.30926801  0.74937099  0.56115541  1
  C  C117  1  0.36442994  0.74926567  0.62316716  1
  C  C118  1  0.30766947  0.74958441  0.68346894  1
  C  C119  1  0.36254769  0.74991369  0.74637620  1
  C  C120  1  0.69754491  0.24566678  0.19605667  1
  C  C121  1  0.81343989  0.24741685  0.19510726  1
  C  C122  1  0.86853794  0.24989090  0.25440012  1
  C  C123  1  0.81148035  0.25078555  0.31660011  1
  C  C124  1  0.86656478  0.25112897  0.37734271  1
  C  C125  1  0.81020614  0.25083202  0.43881237  1
  C  C126  1  0.86585387  0.25050488  0.49997274  1
  C  C127  1  0.81016007  0.25037764  0.56111425  1
  C  C128  1  0.86646076  0.24999989  0.62260444  1
  C  C129  1  0.81134605  0.24989640  0.68334024  1
  C  C130  1  0.86836273  0.24862399  0.74553328  1
  C  C131  1  0.81320013  0.24826073  0.80488919  1
  C  C132  1  0.69727489  0.24971832  0.80379400  1
  C  C133  1  0.63728242  0.25038017  0.74631685  1
  C  C134  1  0.69226327  0.25044012  0.68346472  1
  C  C135  1  0.63555083  0.25064925  0.62317696  1
  C  C136  1  0.69077144  0.25053123  0.56121261  1
  C  C137  1  0.63498268  0.25051341  0.49993989  1
  C  C138  1  0.69082489  0.25064415  0.43868794  1
  C  C139  1  0.63564203  0.25016676  0.37670356  1
  C  C140  1  0.69242274  0.24990216  0.31642228  1
  C  C141  1  0.63747486  0.24715671  0.25360081  1
  C  C142  1  0.75450947  0.69756109  0.19606404  1
  C  C143  1  0.75267349  0.81327195  0.19509526  1
  C  C144  1  0.75004675  0.86826050  0.25443191  1
  C  C145  1  0.74911497  0.81128382  0.31658298  1
  C  C146  1  0.74875794  0.86625920  0.37734184  1
  C  C147  1  0.74908108  0.81000627  0.43880637  1
  C  C148  1  0.74941942  0.86555407  0.49995882  1
  C  C149  1  0.74955030  0.80997183  0.56110675  1
  C  C150  1  0.74990941  0.86617737  0.62258959  1
  C  C151  1  0.75005453  0.81118549  0.68332681  1
  C  C152  1  0.75134461  0.86811305  0.74552693  1
  C  C153  1  0.75191761  0.81309078  0.80485615  1
  C  C154  1  0.75064363  0.69739722  0.80383889  1
  C  C155  1  0.74980947  0.63745214  0.74633409  1
  C  C156  1  0.74957068  0.69232672  0.68348308  1
  C  C157  1  0.74933192  0.63570468  0.62318620  1
  C  C158  1  0.74941865  0.69080665  0.56120886  1
  C  C159  1  0.74944818  0.63511482  0.49994056  1
  C  C160  1  0.74929179  0.69083726  0.43867408  1
  C  C161  1  0.74976898  0.63577115  0.37669168  1
  C  C162  1  0.75002385  0.69242240  0.31641053  1
  C  C163  1  0.75288300  0.63765043  0.25354990  1
  I  I164  1  0.25497836  0.92656169  0.00325047  1
  I  I165  1  0.25080646  0.58115942  0.99857740  1
  I  I166  1  0.74999133  0.08493652  0.00136781  1
  I  I167  1  0.74714665  0.42366183  0.99858992  1
  I  I168  1  0.08018960  0.25052186  0.00244886  1
  I  I169  1  0.92135023  0.74506598  0.00223372  1
  I  I170  1  0.42215777  0.25039360  0.99859114  1
  I  I171  1  0.57883449  0.74630557  0.99872343  1
  I  I172  1  0.99969000  -0.00010503  0.84423600  1
  I  I173  1  0.99908019  -0.00011113  0.15778759  1
  I  I174  1  0.00021477  0.49955388  0.84310163  1
  I  I175  1  1.00006592  0.49978707  0.16267039  1
  I  I176  1  0.50075473  0.99987046  0.84306415  1
  I  I177  1  0.50180931  0.99948710  0.16252316  1
  I  I178  1  0.49953309  0.50020182  0.83542420  1
  I  I179  1  0.49960686  0.50012089  0.15672584  1
  N  N180  1  0.24570597  0.35981223  0.86792289  1
  N  N181  1  0.24029885  0.35946664  0.13193980  1
  N  N182  1  0.35979036  0.75500417  0.86799241  1
  N  N183  1  0.35932607  0.76049812  0.13179158  1
  N  N184  1  0.63996395  0.24086171  0.13208951  1
  N  N185  1  0.63960945  0.24616629  0.86781903  1
  N  N186  1  0.75972863  0.64019124  0.13205914  1
  N  N187  1  0.75452552  0.63991804  0.86787990  1
