# generated using pymatgen
data_H14PbC18S2(I2N)2
_symmetry_space_group_name_H-M   'P 1'
_cell_length_a   12.30781268
_cell_length_b   12.30775218
_cell_length_c   19.03892778
_cell_angle_alpha   89.57544699
_cell_angle_beta   89.57664899
_cell_angle_gamma   89.77872165
_symmetry_Int_Tables_number   1
_chemical_formula_structural   H14PbC18S2(I2N)2
_chemical_formula_sum   'H56 Pb4 C72 S8 I16 N8'
_cell_volume   2883.86669234
_cell_formula_units_Z   4
loop_
 _symmetry_equiv_pos_site_id
 _symmetry_equiv_pos_as_xyz
  1  'x, y, z'
loop_
 _atom_site_type_symbol
 _atom_site_label
 _atom_site_symmetry_multiplicity
 _atom_site_fract_x
 _atom_site_fract_y
 _atom_site_fract_z
 _atom_site_occupancy
  H  H0  1  0.30233025  0.17319438  0.88290974  1
  H  H1  1  0.31732260  0.30572024  0.89132648  1
  H  H2  1  0.19240596  0.25232700  0.89525434  1
  H  H3  1  0.26141163  0.43474022  0.79727531  1
  H  H4  1  0.26140930  0.45682276  0.66762464  1
  H  H5  1  0.26266572  0.08548862  0.77745191  1
  H  H6  1  0.26478088  0.05492944  0.46099068  1
  H  H7  1  0.26452591  0.44545559  0.53890774  1
  H  H8  1  0.26281786  0.41559610  0.22273168  1
  H  H9  1  0.18789587  0.24603708  0.10653370  1
  H  H10  1  0.31613407  0.19960029  0.10668094  1
  H  H11  1  0.29272825  0.33047151  0.11593251  1
  H  H12  1  0.26107693  0.06636492  0.20233723  1
  H  H13  1  0.26245836  0.04385256  0.33187574  1
  H  H14  1  0.16956492  0.70718085  0.88406367  1
  H  H15  1  0.30046274  0.68392314  0.89331225  1
  H  H16  1  0.25389214  0.81210902  0.89345662  1
  H  H17  1  0.43363534  0.73891928  0.79765632  1
  H  H18  1  0.45614581  0.73753972  0.66811818  1
  H  H19  1  0.08440707  0.73718131  0.77726236  1
  H  H20  1  0.05453940  0.73547358  0.46108589  1
  H  H21  1  0.44506702  0.73521881  0.53900369  1
  H  H22  1  0.41449699  0.73733485  0.22254567  1
  H  H23  1  0.24760319  0.80759835  0.10473560  1
  H  H24  1  0.19433426  0.68261668  0.10866301  1
  H  H25  1  0.32683430  0.69776153  0.11708934  1
  H  H26  1  0.06524550  0.73859139  0.20271315  1
  H  H27  1  0.04317331  0.73859036  0.33236563  1
  H  H28  1  0.82680503  0.19767350  0.11709036  1
  H  H29  1  0.69428086  0.18268173  0.10867231  1
  H  H30  1  0.74767299  0.30759894  0.10474582  1
  H  H31  1  0.56525907  0.23859038  0.20272214  1
  H  H32  1  0.54317710  0.23859086  0.33237339  1
  H  H33  1  0.91451001  0.23733373  0.22254985  1
  H  H34  1  0.94507116  0.23521870  0.53901084  1
  H  H35  1  0.55454461  0.23547322  0.46109126  1
  H  H36  1  0.58441045  0.23718082  0.77726652  1
  H  H37  1  0.75396162  0.31210624  0.89346705  1
  H  H38  1  0.80039592  0.18386101  0.89332515  1
  H  H39  1  0.66953245  0.20727779  0.88406406  1
  H  H40  1  0.93364098  0.23892391  0.79766622  1
  H  H41  1  0.95614809  0.23754217  0.66812721  1
  H  H42  1  0.79281963  0.83043965  0.11593376  1
  H  H43  1  0.81607416  0.69953715  0.10669057  1
  H  H44  1  0.68789205  0.74610703  0.10654489  1
  H  H45  1  0.76108163  0.56636960  0.20234669  1
  H  H46  1  0.76246138  0.54385377  0.33188494  1
  H  H47  1  0.76281754  0.91559995  0.22273634  1
  H  H48  1  0.76452570  0.94546195  0.53891360  1
  H  H49  1  0.76478068  0.55493375  0.46099816  1
  H  H50  1  0.76266546  0.58550036  0.77745687  1
  H  H51  1  0.69240149  0.75239714  0.89526345  1
  H  H52  1  0.81738292  0.80566543  0.89133721  1
  H  H53  1  0.80223690  0.67316543  0.88291225  1
  H  H54  1  0.76140641  0.93475551  0.79728576  1
  H  H55  1  0.76140819  0.95682685  0.66763270  1
  Pb  Pb56  1  0.00499418  -0.00061068  0.99949495  1
  Pb  Pb57  1  1.00061379  0.49500579  0.00050077  1
  Pb  Pb58  1  0.50061037  0.99500842  0.00049651  1
  Pb  Pb59  1  0.50499713  0.49939086  0.99949908  1
  C  C60  1  0.26221413  0.25928249  0.79254462  1
  C  C61  1  0.26087479  0.36389153  0.76342148  1
  C  C62  1  0.26082915  0.37555193  0.69074393  1
  C  C63  1  0.26177759  0.28318334  0.64783371  1
  C  C64  1  0.26126501  0.17850452  0.67972228  1
  C  C65  1  0.26141077  0.16546727  0.75263806  1
  C  C66  1  0.26420626  0.16618114  0.54876274  1
  C  C67  1  0.26481834  0.13947591  0.47772395  1
  C  C68  1  0.26464174  0.22405220  0.42803295  1
  C  C69  1  0.26487626  0.33417043  0.45117888  1
  C  C70  1  0.26458626  0.36089218  0.52220123  1
  C  C71  1  0.26368614  0.27632216  0.57186266  1
  C  C72  1  0.26276367  0.32218552  0.32030087  1
  C  C73  1  0.26195838  0.33552398  0.24743115  1
  C  C74  1  0.26162024  0.24197101  0.20731850  1
  C  C75  1  0.26100777  0.13719436  0.23623086  1
  C  C76  1  0.26197891  0.12523349  0.30891079  1
  C  C77  1  0.26322986  0.21737189  0.35203258  1
  C  C78  1  0.25802811  0.73837665  0.79267721  1
  C  C79  1  0.36281377  0.73898958  0.76376602  1
  C  C80  1  0.37476640  0.73801946  0.69108323  1
  C  C81  1  0.28262551  0.73676932  0.64796081  1
  C  C82  1  0.17781520  0.73723639  0.67969429  1
  C  C83  1  0.16447663  0.73804034  0.75256175  1
  C  C84  1  0.16582571  0.73512183  0.54881464  1
  C  C85  1  0.13910544  0.73541276  0.47779186  1
  C  C86  1  0.22366910  0.73631211  0.42813386  1
  C  C87  1  0.33381225  0.73579104  0.45123144  1
  C  C88  1  0.36051812  0.73517970  0.52227113  1
  C  C89  1  0.27594666  0.73535709  0.57196318  1
  C  C90  1  0.32147985  0.73873244  0.32027477  1
  C  C91  1  0.33453819  0.73858877  0.24735438  1
  C  C92  1  0.24068821  0.73778930  0.20744706  1
  C  C93  1  0.13611890  0.73912734  0.23657803  1
  C  C94  1  0.12442952  0.73916988  0.30924516  1
  C  C95  1  0.21681784  0.73822026  0.35216215  1
  C  C96  1  0.74071605  0.23778664  0.20745515  1
  C  C97  1  0.63611003  0.23912619  0.23657835  1
  C  C98  1  0.62444981  0.23917043  0.30925364  1
  C  C99  1  0.71681534  0.23822134  0.35216529  1
  C  C100  1  0.82149494  0.23873255  0.32027890  1
  C  C101  1  0.83453265  0.23858777  0.24736203  1
  C  C102  1  0.83381910  0.23579235  0.45123790  1
  C  C103  1  0.86052437  0.23518079  0.52227747  1
  C  C104  1  0.77595060  0.23535754  0.57196725  1
  C  C105  1  0.66583046  0.23512258  0.54881990  1
  C  C106  1  0.63911065  0.23541273  0.47779820  1
  C  C107  1  0.72367690  0.23631284  0.42813786  1
  C  C108  1  0.67781971  0.23723491  0.67969735  1
  C  C109  1  0.66447542  0.23804030  0.75257065  1
  C  C110  1  0.75804166  0.23837967  0.79268171  1
  C  C111  1  0.86280002  0.23899233  0.76376802  1
  C  C112  1  0.87477311  0.23802118  0.69109160  1
  C  C113  1  0.78262853  0.23676959  0.64796733  1
  C  C114  1  0.76162322  0.74198584  0.20732487  1
  C  C115  1  0.76101070  0.63718257  0.23623360  1
  C  C116  1  0.76198126  0.62524224  0.30891925  1
  C  C117  1  0.76323032  0.71737245  0.35203837  1
  C  C118  1  0.76276416  0.82219202  0.32030600  1
  C  C119  1  0.76195819  0.83552076  0.24743835  1
  C  C120  1  0.76487865  0.83417722  0.45118522  1
  C  C121  1  0.76458693  0.86089481  0.52220748  1
  C  C122  1  0.76368745  0.77633151  0.57186589  1
  C  C123  1  0.76420873  0.66618772  0.54876982  1
  C  C124  1  0.76481990  0.63948128  0.47773021  1
  C  C125  1  0.76464285  0.72405666  0.42803742  1
  C  C126  1  0.76126772  0.67851788  0.67972648  1
  C  C127  1  0.76141102  0.66546470  0.75264634  1
  C  C128  1  0.76220960  0.75931061  0.79255157  1
  C  C129  1  0.76087101  0.86387830  0.76342044  1
  C  C130  1  0.76082893  0.87557242  0.69075437  1
  C  C131  1  0.76177941  0.78318151  0.64783742  1
  S  S132  1  0.26302691  0.07336698  0.61882625  1
  S  S133  1  0.26419692  0.42709779  0.38124220  1
  S  S134  1  0.07289999  0.73580498  0.61875072  1
  S  S135  1  0.42662591  0.73697164  0.38116904  1
  S  S136  1  0.92663187  0.23697014  0.38117562  1
  S  S137  1  0.57290505  0.23580086  0.61875712  1
  S  S138  1  0.76419460  0.92710200  0.38124838  1
  S  S139  1  0.76302883  0.57337347  0.61883318  1
  I  I140  1  0.25362107  0.93665062  0.00242759  1
  I  I141  1  0.25379904  0.53173163  0.99679497  1
  I  I142  1  0.75379642  0.03173897  0.99678963  1
  I  I143  1  0.75363284  0.43665393  0.00243194  1
  I  I144  1  0.06334932  0.24637343  0.99756539  1
  I  I145  1  0.96826048  0.74620395  0.00320771  1
  I  I146  1  0.46826786  0.24620476  0.00320934  1
  I  I147  1  0.56334737  0.74638032  0.99757310  1
  I  I148  1  0.01458555  0.99182700  0.83423987  1
  I  I149  1  0.98777107  0.00682677  0.16588317  1
  I  I150  1  0.99317517  0.51222019  0.83411336  1
  I  I151  1  0.00817309  0.48540875  0.16575598  1
  I  I152  1  0.49315094  0.01221251  0.83410989  1
  I  I153  1  0.50817004  0.98541670  0.16575495  1
  I  I154  1  0.51458397  0.49183072  0.83424281  1
  I  I155  1  0.48778789  0.50682976  0.16588575  1
  N  N156  1  0.26794211  0.24733053  0.86936704  1
  N  N157  1  0.26375459  0.25465165  0.13039835  1
  N  N158  1  0.24536335  0.73623649  0.86959658  1
  N  N159  1  0.25270964  0.73206421  0.13062377  1
  N  N160  1  0.75266764  0.23205932  0.13063178  1
  N  N161  1  0.74532262  0.23623911  0.86960378  1
  N  N162  1  0.76375299  0.75462448  0.13040498  1
  N  N163  1  0.76793407  0.74728897  0.86937701  1
