# generated using pymatgen
data_H16PbC19S2(I2N)2
_symmetry_space_group_name_H-M   'P 1'
_cell_length_a   12.13108027
_cell_length_b   12.08496622
_cell_length_c   20.25678808
_cell_angle_alpha   89.43214196
_cell_angle_beta   89.40162817
_cell_angle_gamma   88.82982794
_symmetry_Int_Tables_number   1
_chemical_formula_structural   H16PbC19S2(I2N)2
_chemical_formula_sum   'H64 Pb4 C76 S8 I16 N8'
_cell_volume   2968.79905761
_cell_formula_units_Z   4
loop_
 _symmetry_equiv_pos_site_id
 _symmetry_equiv_pos_as_xyz
  1  'x, y, z'
loop_
 _atom_site_type_symbol
 _atom_site_label
 _atom_site_symmetry_multiplicity
 _atom_site_fract_x
 _atom_site_fract_y
 _atom_site_fract_z
 _atom_site_occupancy
  H  H0  1  0.19920621  0.24062595  0.90438801  1
  H  H1  1  0.14359955  0.17933955  0.83920186  1
  H  H2  1  0.14043908  0.31984389  0.84585120  1
  H  H3  1  0.34431996  0.17742789  0.83385572  1
  H  H4  1  0.34113445  0.32454729  0.84040749  1
  H  H5  1  0.29021056  0.44263390  0.74603942  1
  H  H6  1  0.27044803  0.46305474  0.62510320  1
  H  H7  1  0.28835093  0.08666409  0.73060678  1
  H  H8  1  0.24603595  0.05153232  0.43448622  1
  H  H9  1  0.25098944  0.45027063  0.50523301  1
  H  H10  1  0.21684101  0.41498875  0.20904841  1
  H  H11  1  0.26298081  0.23867381  0.09491362  1
  H  H12  1  0.14017408  0.18564984  0.11111357  1
  H  H13  1  0.15663382  0.32282244  0.11382542  1
  H  H14  1  0.22267085  0.05935841  0.19309187  1
  H  H15  1  0.23936467  0.03825618  0.31445080  1
  H  H16  1  0.23844452  0.80179118  0.90299376  1
  H  H17  1  0.18255018  0.86154038  0.83642450  1
  H  H18  1  0.32111590  0.85711335  0.84488465  1
  H  H19  1  0.17854264  0.65789697  0.83499357  1
  H  H20  1  0.32493633  0.65569055  0.84104294  1
  H  H21  1  0.44208160  0.70901650  0.74629871  1
  H  H22  1  0.46173714  0.72828331  0.62491731  1
  H  H23  1  0.08737815  0.71074663  0.73075516  1
  H  H24  1  0.05122578  0.75542130  0.43400290  1
  H  H25  1  0.44848184  0.74817353  0.50515624  1
  H  H26  1  0.41411126  0.78157258  0.20894320  1
  H  H27  1  0.23984653  0.73516021  0.09476847  1
  H  H28  1  0.18820922  0.86072869  0.10830271  1
  H  H29  1  0.32492796  0.83735362  0.11197337  1
  H  H30  1  0.06051788  0.77845994  0.19141154  1
  H  H31  1  0.03859696  0.76266438  0.31304549  1
  H  H32  1  0.75604182  0.30360641  0.09627335  1
  H  H33  1  0.82343990  0.35703506  0.15959273  1
  H  H34  1  0.68385272  0.36381259  0.15750472  1
  H  H35  1  0.82254288  0.15606484  0.16570587  1
  H  H36  1  0.67621493  0.16050725  0.15982028  1
  H  H37  1  0.55928954  0.20960343  0.25397182  1
  H  H38  1  0.53859628  0.22910073  0.37513973  1
  H  H39  1  0.91387783  0.21268264  0.26972736  1
  H  H40  1  0.94740752  0.25459767  0.56606913  1
  H  H41  1  0.55062884  0.24834936  0.49474153  1
  H  H42  1  0.58327891  0.28510672  0.79082241  1
  H  H43  1  0.75646809  0.23727680  0.90571838  1
  H  H44  1  0.81232755  0.35845365  0.88974535  1
  H  H45  1  0.67502300  0.34630407  0.88626545  1
  H  H46  1  0.93686403  0.27547671  0.80804139  1
  H  H47  1  0.95947966  0.25936978  0.68661473  1
  H  H48  1  0.69948587  0.75565949  0.09610556  1
  H  H49  1  0.63949328  0.81842774  0.16024212  1
  H  H50  1  0.64427706  0.67796286  0.15689237  1
  H  H51  1  0.84021914  0.82471382  0.16452119  1
  H  H52  1  0.84563557  0.67735778  0.15939464  1
  H  H53  1  0.79063976  0.55977677  0.25312929  1
  H  H54  1  0.77147773  0.53895714  0.37436293  1
  H  H55  1  0.78860887  0.91565499  0.26967743  1
  H  H56  1  0.74465556  0.94925877  0.56646934  1
  H  H57  1  0.75190452  0.55103899  0.49417431  1
  H  H58  1  0.71518428  0.58330444  0.79040092  1
  H  H59  1  0.76217207  0.76028304  0.90525427  1
  H  H60  1  0.63588568  0.80810494  0.89056311  1
  H  H61  1  0.66246487  0.67200991  0.88754512  1
  H  H62  1  0.72326961  0.93835957  0.80876512  1
  H  H63  1  0.73827682  0.96081561  0.68729886  1
  Pb  Pb64  1  0.99104609  0.00012396  0.98575878  1
  Pb  Pb65  1  0.00317409  0.50693498  0.00058268  1
  Pb  Pb66  1  0.49998041  0.00745056  0.99847921  1
  Pb  Pb67  1  0.49346808  0.49902731  0.01357504  1
  C  C68  1  0.29890962  0.25346821  0.81963446  1
  C  C69  1  0.28798946  0.26366295  0.74589993  1
  C  C70  1  0.28345759  0.36919758  0.71558607  1
  C  C71  1  0.27259906  0.38067019  0.64760791  1
  C  C72  1  0.26605437  0.28606253  0.60817992  1
  C  C73  1  0.27119636  0.18011602  0.63908051  1
  C  C74  1  0.28240845  0.16841529  0.70741926  1
  C  C75  1  0.25506259  0.16565411  0.51617700  1
  C  C76  1  0.24784843  0.13775596  0.44979546  1
  C  C77  1  0.24296175  0.22354412  0.40282394  1
  C  C78  1  0.24381364  0.33600556  0.42369104  1
  C  C79  1  0.25037445  0.36392904  0.49008653  1
  C  C80  1  0.25668156  0.27819234  0.53709461  1
  C  C81  1  0.23250029  0.32172600  0.30101188  1
  C  C82  1  0.22300597  0.33385210  0.23266269  1
  C  C83  1  0.21700664  0.23767253  0.19618168  1
  C  C84  1  0.22569209  0.13181185  0.22432265  1
  C  C85  1  0.23500317  0.12078383  0.29230475  1
  C  C86  1  0.23668136  0.21560559  0.33172792  1
  C  C87  1  0.25387295  0.70079717  0.81993567  1
  C  C88  1  0.26369352  0.71078473  0.74600095  1
  C  C89  1  0.36873886  0.71509892  0.71564687  1
  C  C90  1  0.37979805  0.72555780  0.64752527  1
  C  C91  1  0.28530342  0.73205477  0.60801012  1
  C  C92  1  0.17994242  0.72693351  0.63893035  1
  C  C93  1  0.16864390  0.71604879  0.70745585  1
  C  C94  1  0.16507180  0.74501239  0.51588438  1
  C  C95  1  0.13714441  0.75357066  0.44941989  1
  C  C96  1  0.22254120  0.75891600  0.40243204  1
  C  C97  1  0.33456050  0.75723867  0.42351011  1
  C  C98  1  0.36246780  0.74949284  0.48995368  1
  C  C99  1  0.27718990  0.74256588  0.53689876  1
  C  C100  1  0.32082770  0.76818522  0.30080983  1
  C  C101  1  0.33333527  0.77656916  0.23240696  1
  C  C102  1  0.23805009  0.78282556  0.19529980  1
  C  C103  1  0.13240036  0.77516366  0.22304162  1
  C  C104  1  0.12093722  0.76657842  0.29119641  1
  C  C105  1  0.21491326  0.76496507  0.33117206  1
  C  C106  1  0.74747967  0.20217463  0.18055127  1
  C  C107  1  0.73749723  0.21211391  0.25435229  1
  C  C108  1  0.63224519  0.21622922  0.28460094  1
  C  C109  1  0.62065731  0.22688910  0.35256801  1
  C  C110  1  0.71473253  0.23386806  0.39204511  1
  C  C111  1  0.82036477  0.22901146  0.36126254  1
  C  C112  1  0.83228456  0.21779059  0.29287992  1
  C  C113  1  0.83416461  0.24571274  0.48419196  1
  C  C114  1  0.86157971  0.25294809  0.55064276  1
  C  C115  1  0.77587295  0.25751155  0.59754202  1
  C  C116  1  0.66398126  0.25652378  0.57642719  1
  C  C117  1  0.63655744  0.24964366  0.50997735  1
  C  C118  1  0.72219669  0.24357365  0.46310052  1
  C  C119  1  0.67708708  0.26766551  0.69913818  1
  C  C120  1  0.66423164  0.27793902  0.76743309  1
  C  C121  1  0.75972089  0.28307116  0.80429740  1
  C  C122  1  0.86522489  0.27310701  0.77643520  1
  C  C123  1  0.87706403  0.26397638  0.70848875  1
  C  C124  1  0.78312121  0.26307013  0.66872151  1
  C  C125  1  0.79915248  0.74832143  0.17991442  1
  C  C126  1  0.78875285  0.73868303  0.25384366  1
  C  C127  1  0.78437789  0.63308385  0.28396660  1
  C  C128  1  0.77418152  0.62139239  0.35201586  1
  C  C129  1  0.76788196  0.71588807  0.39179832  1
  C  C130  1  0.77295893  0.82192251  0.36120912  1
  C  C131  1  0.78362541  0.83381171  0.29266615  1
  C  C132  1  0.75471471  0.83562705  0.48429395  1
  C  C133  1  0.74621612  0.86313683  0.55082997  1
  C  C134  1  0.74071945  0.77704096  0.59750769  1
  C  C135  1  0.74210008  0.66481726  0.57605174  1
  C  C136  1  0.75016286  0.63729068  0.50956230  1
  C  C137  1  0.75721313  0.72331636  0.46291535  1
  C  C138  1  0.73068069  0.67758487  0.69880578  1
  C  C139  1  0.72148690  0.66453376  0.76713287  1
  C  C140  1  0.71663813  0.75999044  0.80446979  1
  C  C141  1  0.72585760  0.86618309  0.77711054  1
  C  C142  1  0.73428105  0.87806618  0.70899812  1
  C  C143  1  0.73489918  0.78410667  0.66878519  1
  S  S144  1  0.26422848  0.07213743  0.58252820  1
  S  S145  1  0.23622030  0.42962032  0.35737648  1
  S  S146  1  0.07220967  0.73499004  0.58226350  1
  S  S147  1  0.42807421  0.76401677  0.35734178  1
  S  S148  1  0.92760231  0.23674864  0.41794783  1
  S  S149  1  0.57018695  0.26382538  0.64249539  1
  S  S150  1  0.76474352  0.92945976  0.41825663  1
  S  S151  1  0.73477877  0.57044752  0.64186349  1
  I  I152  1  0.24632825  0.06219427  0.99464155  1
  I  I153  1  0.25218231  0.41914659  0.99087913  1
  I  I154  1  0.74965401  0.91983156  0.00626667  1
  I  I155  1  0.74881109  0.56291087  0.00820443  1
  I  I156  1  0.93542210  0.25280678  0.00334869  1
  I  I157  1  0.07963612  0.75108940  0.99091941  1
  I  I158  1  0.58093527  0.24916145  0.01301875  1
  I  I159  1  0.43516555  0.75151544  0.99257712  1
  I  I160  1  0.02704466  0.00745520  0.82420357  1
  I  I161  1  0.00220452  0.00633025  0.14182535  1
  I  I162  1  0.00124265  0.49963399  0.84373112  1
  I  I163  1  0.99439747  0.48000621  0.16039851  1
  I  I164  1  0.48348725  0.98696295  0.83971632  1
  I  I165  1  0.50025916  0.98584591  0.15656918  1
  I  I166  1  0.51671743  0.49807036  0.85599838  1
  I  I167  1  0.52158967  0.50847175  0.17357612  1
  N  N168  1  0.18809701  0.24829190  0.85383662  1
  N  N169  1  0.19417131  0.24699571  0.12525355  1
  N  N170  1  0.24912834  0.81223802  0.85244149  1
  N  N171  1  0.24875107  0.80422731  0.12395790  1
  N  N172  1  0.75301077  0.31380014  0.14702019  1
  N  N173  1  0.75006682  0.30630608  0.87524431  1
  N  N174  1  0.68843810  0.74993843  0.14687241  1
  N  N175  1  0.69428154  0.74908194  0.87559633  1
