# generated using pymatgen
data_H14PbC17S3(I2N)2
_symmetry_space_group_name_H-M   'P 1'
_cell_length_a   12.38903697
_cell_length_b   12.34212045
_cell_length_c   19.65687793
_cell_angle_alpha   91.26450336
_cell_angle_beta   90.77110101
_cell_angle_gamma   89.40927092
_symmetry_Int_Tables_number   1
_chemical_formula_structural   H14PbC17S3(I2N)2
_chemical_formula_sum   'H56 Pb4 C68 S12 I16 N8'
_cell_volume   3004.51914841
_cell_formula_units_Z   4
loop_
 _symmetry_equiv_pos_site_id
 _symmetry_equiv_pos_as_xyz
  1  'x, y, z'
loop_
 _atom_site_type_symbol
 _atom_site_label
 _atom_site_symmetry_multiplicity
 _atom_site_fract_x
 _atom_site_fract_y
 _atom_site_fract_z
 _atom_site_occupancy
  H  H0  1  0.28642763  0.30374210  0.90977722  1
  H  H1  1  0.34472983  0.21384451  0.85572351  1
  H  H2  1  0.35042750  0.34811335  0.84139836  1
  H  H3  1  0.14925196  0.21537350  0.84276535  1
  H  H4  1  0.15270563  0.35778528  0.83011759  1
  H  H5  1  0.20641767  0.08659839  0.75290298  1
  H  H6  1  0.22827709  0.04968059  0.62944722  1
  H  H7  1  0.21193303  0.43145818  0.72174830  1
  H  H8  1  0.27018119  0.05807647  0.29823900  1
  H  H9  1  0.27742633  0.10221501  0.17617467  1
  H  H10  1  0.29898851  0.38192702  0.11734839  1
  H  H11  1  0.33721904  0.25761329  0.09761176  1
  H  H12  1  0.20500681  0.28859348  0.09570966  1
  H  H13  1  0.26690321  0.44501775  0.22552435  1
  H  H14  1  0.30828523  0.70954299  0.90711475  1
  H  H15  1  0.21567496  0.65840825  0.85346007  1
  H  H16  1  0.34795932  0.64518902  0.83642378  1
  H  H17  1  0.22255043  0.85443338  0.84558499  1
  H  H18  1  0.36360605  0.84362816  0.83076657  1
  H  H19  1  0.09036178  0.79383594  0.75551249  1
  H  H20  1  0.05250755  0.77089336  0.63200077  1
  H  H21  1  0.43364377  0.78864705  0.72035326  1
  H  H22  1  0.05801730  0.73225864  0.29977399  1
  H  H23  1  0.10134087  0.72214950  0.17679130  1
  H  H24  1  0.37630689  0.68395097  0.11666396  1
  H  H25  1  0.24955916  0.66188028  0.09590177  1
  H  H26  1  0.29216265  0.79008827  0.09608986  1
  H  H27  1  0.44248381  0.73210851  0.22337828  1
  H  H28  1  0.70133829  0.19339660  0.09191422  1
  H  H29  1  0.78624705  0.14059811  0.15055191  1
  H  H30  1  0.65216486  0.13596614  0.16028777  1
  H  H31  1  0.77865423  0.34191540  0.15505571  1
  H  H32  1  0.63732718  0.33308547  0.16818869  1
  H  H33  1  0.90961489  0.28850195  0.24471181  1
  H  H34  1  0.94806667  0.27209354  0.36791383  1
  H  H35  1  0.56639556  0.28563630  0.27988488  1
  H  H36  1  0.94452488  0.22732331  0.69996768  1
  H  H37  1  0.90082079  0.21367730  0.82197183  1
  H  H38  1  0.62070975  0.18825965  0.87983185  1
  H  H39  1  0.74536570  0.15498201  0.90128273  1
  H  H40  1  0.70916508  0.28646859  0.90483662  1
  H  H41  1  0.55986830  0.23375002  0.77526542  1
  H  H42  1  0.80700564  0.70546570  0.09387622  1
  H  H43  1  0.85120912  0.78962683  0.15464808  1
  H  H44  1  0.86339297  0.65282123  0.16265474  1
  H  H45  1  0.65427888  0.77716194  0.15487517  1
  H  H46  1  0.66806972  0.63501221  0.16703700  1
  H  H47  1  0.71281624  0.90818928  0.24591112  1
  H  H48  1  0.72993267  0.94655366  0.36956883  1
  H  H49  1  0.71334569  0.56360438  0.27923257  1
  H  H50  1  0.77068680  0.94411547  0.70087961  1
  H  H51  1  0.78626980  0.90197725  0.82351282  1
  H  H52  1  0.82624914  0.62716193  0.88229212  1
  H  H53  1  0.84528712  0.75504838  0.90368942  1
  H  H54  1  0.71855103  0.70812703  0.90419079  1
  H  H55  1  0.77104108  0.55888156  0.77694890  1
  Pb  Pb56  1  1.00161801  0.00768181  0.00936365  1
  Pb  Pb57  1  1.00149371  0.49281882  0.00127441  1
  Pb  Pb58  1  0.49172402  0.99443806  0.00593234  1
  Pb  Pb59  1  0.51144052  0.50067107  0.98563286  1
  C  C60  1  0.19516201  0.28064252  0.82002678  1
  C  C61  1  0.21047912  0.26077676  0.74511711  1
  C  C62  1  0.21454116  0.15379342  0.71826895  1
  C  C63  1  0.22621108  0.13306509  0.64899366  1
  C  C64  1  0.23415615  0.22014092  0.60426519  1
  C  C65  1  0.22947573  0.32812184  0.63204715  1
  C  C66  1  0.21758840  0.34846937  0.70165815  1
  C  C67  1  0.24748440  0.32839014  0.50706666  1
  C  C68  1  0.24488397  0.22300038  0.53174975  1
  C  C69  1  0.25861905  0.22582707  0.40574545  1
  C  C70  1  0.26412461  0.22674522  0.33283753  1
  C  C71  1  0.26868753  0.14260537  0.28328199  1
  C  C72  1  0.27242133  0.16705932  0.21462309  1
  C  C73  1  0.27187493  0.27562464  0.19537314  1
  C  C74  1  0.26732869  0.36138168  0.24206206  1
  C  C75  1  0.26384584  0.33640615  0.31068494  1
  C  C76  1  0.25507777  0.32988181  0.43549885  1
  C  C77  1  0.28547010  0.80514595  0.82053406  1
  C  C78  1  0.26400721  0.79069890  0.74560311  1
  C  C79  1  0.15708091  0.78575245  0.72002784  1
  C  C80  1  0.13574419  0.77351457  0.65071340  1
  C  C81  1  0.22198279  0.76585768  0.60479288  1
  C  C82  1  0.32984307  0.77072869  0.63145329  1
  C  C83  1  0.35082004  0.78323065  0.70104816  1
  C  C84  1  0.32886373  0.75266223  0.50621124  1
  C  C85  1  0.22413197  0.75528945  0.53200227  1
  C  C86  1  0.22592310  0.74210614  0.40569783  1
  C  C87  1  0.22619963  0.73703530  0.33269843  1
  C  C88  1  0.14194891  0.73260499  0.28392769  1
  C  C89  1  0.16575265  0.72723250  0.21498745  1
  C  C90  1  0.27352588  0.72623050  0.19465619  1
  C  C91  1  0.35937168  0.73231150  0.24057791  1
  C  C92  1  0.33518533  0.73709747  0.30948844  1
  C  C93  1  0.32982064  0.74528774  0.43447666  1
  C  C94  1  0.71572529  0.29462286  0.17923461  1
  C  C95  1  0.73612970  0.28587918  0.25445065  1
  C  C96  1  0.84305337  0.28249996  0.28011994  1
  C  C97  1  0.86478003  0.27371468  0.34926238  1
  C  C98  1  0.77881653  0.26772256  0.39511165  1
  C  C99  1  0.67083183  0.27228114  0.36861458  1
  C  C100  1  0.64942362  0.28144195  0.29904898  1
  C  C101  1  0.67279680  0.25723920  0.49368727  1
  C  C102  1  0.77731057  0.25873902  0.46771768  1
  C  C103  1  0.77647490  0.24432231  0.59371323  1
  C  C104  1  0.77645463  0.23753085  0.66659222  1
  C  C105  1  0.86034879  0.22960179  0.71549446  1
  C  C106  1  0.83622652  0.22285169  0.78427747  1
  C  C107  1  0.72814844  0.22461315  0.80432178  1
  C  C108  1  0.64304772  0.23343515  0.75825926  1
  C  C109  1  0.66744173  0.23897228  0.68966363  1
  C  C110  1  0.67238632  0.24939786  0.56519036  1
  C  C111  1  0.70363942  0.71418516  0.17933564  1
  C  C112  1  0.71291240  0.73411258  0.25484566  1
  C  C113  1  0.71762981  0.84135081  0.28113631  1
  C  C114  1  0.72733107  0.86296303  0.35051616  1
  C  C115  1  0.73284405  0.77646273  0.39594474  1
  C  C116  1  0.72803211  0.66814543  0.36878295  1
  C  C117  1  0.71792288  0.64683877  0.29894367  1
  C  C118  1  0.74300882  0.66988421  0.49425059  1
  C  C119  1  0.74151781  0.77479753  0.46871254  1
  C  C120  1  0.75556496  0.77417407  0.59488626  1
  C  C121  1  0.76232765  0.77480011  0.66786677  1
  C  C122  1  0.76963394  0.85998447  0.71659132  1
  C  C123  1  0.77782222  0.83694318  0.78544616  1
  C  C124  1  0.77837831  0.72894679  0.80558958  1
  C  C125  1  0.76955542  0.64220509  0.75984589  1
  C  C126  1  0.76199815  0.66570226  0.69100564  1
  C  C127  1  0.75094521  0.66959336  0.56597622  1
  S  S128  1  0.23800439  0.42756510  0.57040611  1
  S  S129  1  0.25281270  0.12543155  0.46648089  1
  S  S130  1  0.25832983  0.43233722  0.37693700  1
  S  S131  1  0.42825014  0.76189494  0.56865793  1
  S  S132  1  0.12642863  0.74758911  0.46750007  1
  S  S133  1  0.43134152  0.74226892  0.37492478  1
  S  S134  1  0.57292231  0.26607531  0.43159773  1
  S  S135  1  0.87550605  0.24980372  0.53178060  1
  S  S136  1  0.57100211  0.24676913  0.62465514  1
  S  S137  1  0.73433389  0.56980015  0.43139560  1
  S  S138  1  0.75028909  0.87348913  0.53328269  1
  S  S139  1  0.75442720  0.56844675  0.62550652  1
  I  I140  1  0.25133863  0.92713888  0.01497059  1
  I  I141  1  0.25810687  0.52406076  0.99137383  1
  I  I142  1  0.75040347  0.00480854  0.98210351  1
  I  I143  1  0.75765645  0.42520422  -0.00137431  1
  I  I144  1  0.08792292  0.24770216  0.99694167  1
  I  I145  1  0.97908207  0.74739888  0.01022823  1
  I  I146  1  0.49020002  0.24610331  0.01791199  1
  I  I147  1  0.54776618  0.74555230  0.96563042  1
  I  I148  1  0.02389549  0.99491614  0.85133307  1
  I  I149  1  0.93299236  0.99473759  0.17120746  1
  I  I150  1  0.01273432  0.53150875  0.83902761  1
  I  I151  1  0.99303931  0.48965953  0.16415616  1
  I  I152  1  0.46366681  0.04962315  0.84482219  1
  I  I153  1  0.51187823  0.98604579  0.16631628  1
  I  I154  1  0.49123396  0.48961818  0.81949814  1
  I  I155  1  0.48652135  0.50913113  0.14823216  1
  N  N156  1  0.30071414  0.28687110  0.85897380  1
  N  N157  1  0.27724141  0.30182290  0.12327987  1
  N  N158  1  0.28910085  0.69806604  0.85617523  1
  N  N159  1  0.29887656  0.71641771  0.12225134  1
  N  N160  1  0.71447636  0.18513888  0.14354155  1
  N  N161  1  0.70026296  0.21469706  0.87614613  1
  N  N162  1  0.81243329  0.71570793  0.14614154  1
  N  N163  1  0.79162709  0.70391593  0.87786314  1
