# generated using pymatgen
data_H16PbC19S2(I2N)2
_symmetry_space_group_name_H-M   'P 1'
_cell_length_a   12.32486899
_cell_length_b   12.45558466
_cell_length_c   19.79654289
_cell_angle_alpha   90.84690946
_cell_angle_beta   90.72323181
_cell_angle_gamma   89.88431294
_symmetry_Int_Tables_number   1
_chemical_formula_structural   H16PbC19S2(I2N)2
_chemical_formula_sum   'H64 Pb4 C76 S8 I16 N8'
_cell_volume   3038.45640274
_cell_formula_units_Z   4
loop_
 _symmetry_equiv_pos_site_id
 _symmetry_equiv_pos_as_xyz
  1  'x, y, z'
loop_
 _atom_site_type_symbol
 _atom_site_label
 _atom_site_symmetry_multiplicity
 _atom_site_fract_x
 _atom_site_fract_y
 _atom_site_fract_z
 _atom_site_occupancy
  H  H0  1  0.33661720  0.23440546  0.86025688  1
  H  H1  1  0.35182317  0.36619816  0.84478674  1
  H  H2  1  0.28442382  0.32737036  0.91302670  1
  H  H3  1  0.15592287  0.38905454  0.83106033  1
  H  H4  1  0.13944462  0.25107085  0.84963801  1
  H  H5  1  0.19593750  0.10996415  0.77038907  1
  H  H6  1  0.21449069  0.05442116  0.65052519  1
  H  H7  1  0.20665429  0.44434292  0.71672056  1
  H  H8  1  0.23564043  0.03048244  0.53060347  1
  H  H9  1  0.25238445  0.03395968  0.40609205  1
  H  H10  1  0.26729700  0.06630930  0.28533707  1
  H  H11  1  0.26832850  0.13027809  0.16752529  1
  H  H12  1  0.18731149  0.30524080  0.09964789  1
  H  H13  1  0.32322360  0.30695987  0.10075121  1
  H  H14  1  0.25495032  0.41602410  0.12432244  1
  H  H15  1  0.24960280  0.45998426  0.23748415  1
  H  H16  1  0.24344628  0.67163892  0.85999239  1
  H  H17  1  0.37457387  0.65077446  0.84116031  1
  H  H18  1  0.34042338  0.72033970  0.91050396  1
  H  H19  1  0.40218375  0.84380281  0.82858833  1
  H  H20  1  0.26428897  0.86535820  0.84983166  1
  H  H21  1  0.11573211  0.80450404  0.77177302  1
  H  H22  1  0.05697650  0.78423781  0.65235736  1
  H  H23  1  0.45256634  0.79412503  0.71387954  1
  H  H24  1  0.03025685  0.76484065  0.53085293  1
  H  H25  1  0.03258630  0.74883177  0.40605604  1
  H  H26  1  0.06461594  0.73574053  0.28454955  1
  H  H27  1  0.12866359  0.73216368  0.16632417  1
  H  H28  1  0.29850772  0.80075202  0.09667743  1
  H  H29  1  0.31391223  0.66698732  0.10026804  1
  H  H30  1  0.41636256  0.74720769  0.12211407  1
  H  H31  1  0.46235855  0.74582442  0.23573654  1
  H  H32  1  0.76501375  0.15036370  0.14619586  1
  H  H33  1  0.63146828  0.13484699  0.15786897  1
  H  H34  1  0.67485835  0.19587863  0.08941718  1
  H  H35  1  0.60130007  0.32633041  0.16776475  1
  H  H36  1  0.73949439  0.34918808  0.14863450  1
  H  H37  1  0.88590700  0.29863081  0.22831708  1
  H  H38  1  0.94401990  0.28643655  0.34792788  1
  H  H39  1  0.54866584  0.28869216  0.28504917  1
  H  H40  1  0.97121566  0.26707769  0.46741793  1
  H  H41  1  0.97070158  0.25072641  0.59198266  1
  H  H42  1  0.94129008  0.23343670  0.71295827  1
  H  H43  1  0.87916781  0.22173434  0.83110138  1
  H  H44  1  0.68858546  0.29696747  0.90169621  1
  H  H45  1  0.71124034  0.16446889  0.89977263  1
  H  H46  1  0.59080432  0.20871795  0.87472906  1
  H  H47  1  0.54473899  0.24387948  0.76476172  1
  H  H48  1  0.84375872  0.76808161  0.15058777  1
  H  H49  1  0.86545087  0.63415982  0.15939922  1
  H  H50  1  0.80393930  0.68215698  0.09092618  1
  H  H51  1  0.67388217  0.59936478  0.16755571  1
  H  H52  1  0.64554831  0.73518645  0.14804313  1
  H  H53  1  0.70235132  0.88188777  0.22815560  1
  H  H54  1  0.71646521  0.93989356  0.34789617  1
  H  H55  1  0.70962543  0.54841376  0.28522276  1
  H  H56  1  0.73350979  0.96657525  0.46846099  1
  H  H57  1  0.74904063  0.96545949  0.59330246  1
  H  H58  1  0.76685492  0.93509524  0.71474364  1
  H  H59  1  0.77588594  0.87269884  0.83300350  1
  H  H60  1  0.69899687  0.69173341  0.90138514  1
  H  H61  1  0.83451774  0.70275967  0.90125723  1
  H  H62  1  0.77773866  0.58771562  0.87712044  1
  H  H63  1  0.75664049  0.54203243  0.76466404  1
  Pb  Pb64  1  0.00075966  0.01043819  0.00483569  1
  Pb  Pb65  1  0.00341304  0.50305740  0.99661435  1
  Pb  Pb66  1  0.48309826  -0.00023992  0.00032510  1
  Pb  Pb67  1  0.51343717  0.50091783  0.99720868  1
  C  C68  1  0.19144602  0.30890876  0.82417846  1
  C  C69  1  0.20389187  0.27988223  0.75088326  1
  C  C70  1  0.20489371  0.17049815  0.73162672  1
  C  C71  1  0.21434996  0.13947473  0.66440126  1
  C  C72  1  0.22262923  0.21807523  0.61457617  1
  C  C73  1  0.21985493  0.32811525  0.63422746  1
  C  C74  1  0.21061009  0.35963612  0.70204462  1
  C  C75  1  0.23637742  0.30381404  0.50922188  1
  C  C76  1  0.23277104  0.20387516  0.54234099  1
  C  C77  1  0.23870353  0.10700391  0.50465477  1
  C  C78  1  0.24804310  0.10893846  0.43506880  1
  C  C79  1  0.25086462  0.20792011  0.40132223  1
  C  C80  1  0.25675429  0.22671305  0.32949315  1
  C  C81  1  0.26297032  0.15213478  0.27572969  1
  C  C82  1  0.26321109  0.18763506  0.20949452  1
  C  C83  1  0.25741187  0.29787537  0.19746272  1
  C  C84  1  0.25354698  0.37478854  0.24883912  1
  C  C85  1  0.25354078  0.33804602  0.31505551  1
  C  C86  1  0.24478259  0.30568340  0.43866304  1
  C  C87  1  0.31998085  0.81143191  0.82279201  1
  C  C88  1  0.28742633  0.79777426  0.75001135  1
  C  C89  1  0.17627215  0.79534696  0.73230598  1
  C  C90  1  0.14328091  0.78500544  0.66521813  1
  C  C91  1  0.22135499  0.77723946  0.61420404  1
  C  C92  1  0.33305744  0.78034108  0.63267930  1
  C  C93  1  0.36656824  0.79043880  0.70017687  1
  C  C94  1  0.30620027  0.76356386  0.50790910  1
  C  C95  1  0.20568110  0.76728817  0.54183139  1
  C  C96  1  0.10739355  0.76178655  0.50448141  1
  C  C97  1  0.10867479  0.75289589  0.43467887  1
  C  C98  1  0.20832286  0.74984118  0.40024844  1
  C  C99  1  0.22693192  0.74376604  0.32822865  1
  C  C100  1  0.15128766  0.73827627  0.27461524  1
  C  C101  1  0.18679603  0.73649494  0.20822615  1
  C  C102  1  0.29814623  0.73981073  0.19582977  1
  C  C103  1  0.37617236  0.74371945  0.24702814  1
  C  C104  1  0.33941619  0.74561523  0.31340748  1
  C  C105  1  0.30740327  0.75521986  0.43721065  1
  C  C106  1  0.68414781  0.29643719  0.17574281  1
  C  C107  1  0.71429026  0.29121109  0.24932708  1
  C  C108  1  0.82519410  0.29164747  0.26762600  1
  C  C109  1  0.85787939  0.28551198  0.33473385  1
  C  C110  1  0.77953539  0.27870881  0.38539089  1
  C  C111  1  0.66790837  0.28051695  0.36675651  1
  C  C112  1  0.63462301  0.28677282  0.29901752  1
  C  C113  1  0.69548203  0.26641720  0.49173230  1
  C  C114  1  0.79565359  0.26992598  0.45754432  1
  C  C115  1  0.89451152  0.26427811  0.49417180  1
  C  C116  1  0.89430694  0.25514489  0.56376817  1
  C  C117  1  0.79514356  0.25229274  0.59857928  1
  C  C118  1  0.77814363  0.24516198  0.67059212  1
  C  C119  1  0.85473489  0.23675888  0.72349212  1
  C  C120  1  0.82037876  0.23104423  0.78999606  1
  C  C121  1  0.70915698  0.23436580  0.80321214  1
  C  C122  1  0.63058802  0.24270498  0.75266846  1
  C  C123  1  0.66602510  0.24728709  0.68620240  1
  C  C124  1  0.69534717  0.25826676  0.56235774  1
  C  C125  1  0.70113334  0.68218027  0.17586438  1
  C  C126  1  0.70669838  0.71217634  0.24950117  1
  C  C127  1  0.70795205  0.82202025  0.26768353  1
  C  C128  1  0.71585909  0.85457622  0.33483631  1
  C  C129  1  0.72253263  0.77717261  0.38557892  1
  C  C130  1  0.71988474  0.66669218  0.36686861  1
  C  C131  1  0.71200889  0.63350685  0.29914478  1
  C  C132  1  0.73469521  0.69372348  0.49191622  1
  C  C133  1  0.73133211  0.79296272  0.45791494  1
  C  C134  1  0.73656407  0.89055152  0.49502896  1
  C  C135  1  0.74521267  0.88992032  0.56482036  1
  C  C136  1  0.74824590  0.79159797  0.59940668  1
  C  C137  1  0.75482122  0.77405045  0.67148435  1
  C  C138  1  0.76264545  0.84943054  0.72486898  1
  C  C139  1  0.76692365  0.81494140  0.79135427  1
  C  C140  1  0.76325571  0.70481411  0.80392109  1
  C  C141  1  0.75709468  0.62718623  0.75299883  1
  C  C142  1  0.75303525  0.66292106  0.68656594  1
  C  C143  1  0.74280398  0.69315453  0.56264923  1
  S  S144  1  0.22816145  0.41335453  0.56494357  1
  S  S145  1  0.24661829  0.41872489  0.38765609  1
  S  S146  1  0.41789794  0.77162240  0.56270238  1
  S  S147  1  0.42130539  0.75247335  0.38582772  1
  S  S148  1  0.58344005  0.27335704  0.43701611  1
  S  S149  1  0.58252927  0.25574903  0.61466161  1
  S  S150  1  0.72730371  0.58305684  0.43697545  1
  S  S151  1  0.74561033  0.58108291  0.61442411  1
  I  I152  1  0.24480260  0.90746631  0.00185698  1
  I  I153  1  0.25792601  0.54484990  0.99532887  1
  I  I154  1  0.74218681  0.03257379  0.98507890  1
  I  I155  1  0.75762639  0.41968218  0.99845793  1
  I  I156  1  0.08308065  0.25315150  0.99808530  1
  I  I157  1  0.94847778  0.75134382  -0.00019023  1
  I  I158  1  0.46088222  0.25028205  0.01899036  1
  I  I159  1  0.56574397  0.74757106  0.99143665  1
  I  I160  1  0.01157408  0.00123892  0.84821053  1
  I  I161  1  0.93172275  0.98838373  0.16472854  1
  I  I162  1  0.00605897  0.53685769  0.83781120  1
  I  I163  1  0.00419455  0.49295144  0.16143639  1
  I  I164  1  0.44501400  0.06744721  0.84328471  1
  I  I165  1  0.49493131  0.98426681  0.16021172  1
  I  I166  1  0.50683496  0.49704829  0.82875314  1
  I  I167  1  0.47381702  0.50642765  0.15458222  1
  N  N168  1  0.29754877  0.30922568  0.86269220  1
  N  N169  1  0.25501824  0.33345310  0.12745364  1
  N  N170  1  0.31911336  0.70709235  0.86035647  1
  N  N171  1  0.33347279  0.73865956  0.12548239  1
  N  N172  1  0.69019488  0.18836277  0.14064000  1
  N  N173  1  0.67326368  0.22741484  0.87320737  1
  N  N174  1  0.80952602  0.69257991  0.14286390  1
  N  N175  1  0.76801997  0.66981797  0.87421185  1
