# generated using pymatgen
data_H7PbC2I4N5
_symmetry_space_group_name_H-M   'P 1'
_cell_length_a   12.14504709
_cell_length_b   12.05341746
_cell_length_c   10.49207424
_cell_angle_alpha   94.73666523
_cell_angle_beta   93.54338216
_cell_angle_gamma   90.65692768
_symmetry_Int_Tables_number   1
_chemical_formula_structural   H7PbC2I4N5
_chemical_formula_sum   'H28 Pb4 C8 I16 N20'
_cell_volume   1527.54387028
_cell_formula_units_Z   4
loop_
 _symmetry_equiv_pos_site_id
 _symmetry_equiv_pos_as_xyz
  1  'x, y, z'
loop_
 _atom_site_type_symbol
 _atom_site_label
 _atom_site_symmetry_multiplicity
 _atom_site_fract_x
 _atom_site_fract_y
 _atom_site_fract_z
 _atom_site_occupancy
  H  H0  1  0.24612720  0.23210128  0.81258219  1
  H  H1  1  0.31011037  0.32265654  0.72402664  1
  H  H2  1  0.17200195  0.31525489  0.71735239  1
  H  H3  1  0.31715324  0.12224434  0.63924325  1
  H  H4  1  0.17068280  0.12146459  0.62489783  1
  H  H5  1  0.24042551  0.38505969  0.28057365  1
  H  H6  1  0.26364674  0.18914363  0.19564944  1
  H  H7  1  0.22615355  0.74430405  0.80783505  1
  H  H8  1  0.30744915  0.66575884  0.71303174  1
  H  H9  1  0.31934002  0.80657811  0.72055569  1
  H  H10  1  0.11994361  0.66846419  0.61805976  1
  H  H11  1  0.12375252  0.81708429  0.63626112  1
  H  H12  1  0.38817772  0.73347034  0.27602172  1
  H  H13  1  0.19550056  0.76212260  0.19274024  1
  H  H14  1  0.77388790  0.25566242  0.19219226  1
  H  H15  1  0.68069171  0.19341474  0.27948567  1
  H  H16  1  0.69258573  0.33423038  0.28697388  1
  H  H17  1  0.87625449  0.18289144  0.36379822  1
  H  H18  1  0.88012540  0.33151418  0.38191474  1
  H  H19  1  0.61187905  0.26647946  0.72399512  1
  H  H20  1  0.80456413  0.23774211  0.80725288  1
  H  H21  1  0.75379059  0.76794495  0.18743152  1
  H  H22  1  0.82791098  0.68478167  0.28264699  1
  H  H23  1  0.68980592  0.67736222  0.27596010  1
  H  H24  1  0.82927324  0.87851106  0.37519446  1
  H  H25  1  0.68280305  0.87783316  0.36071140  1
  H  H26  1  0.75946398  0.61498207  0.71943344  1
  H  H27  1  0.73634615  0.81093766  0.80438546  1
  Pb  Pb28  1  1.00017855  0.99987994  1.00015658  1
  Pb  Pb29  1  1.00004785  0.49987026  1.00005624  1
  Pb  Pb30  1  0.50001839  0.00013394  0.99989784  1
  Pb  Pb31  1  0.50005551  0.50001132  -0.00026786  1
  C  C32  1  0.24494598  0.17476720  0.62080045  1
  C  C33  1  0.24854803  0.21716887  0.49221991  1
  C  C34  1  0.17412323  0.74243925  0.61601849  1
  C  C35  1  0.21880246  0.74526503  0.48779277  1
  C  C36  1  0.82591844  0.25756849  0.38400108  1
  C  C37  1  0.78125591  0.25478275  0.51222994  1
  C  C38  1  0.75496046  0.82525850  0.37921661  1
  C  C39  1  0.75129487  0.78286174  0.50778364  1
  I  I40  1  0.25102598  0.09552589  0.99200158  1
  I  I41  1  0.25242926  0.44093051  0.06786951  1
  I  I42  1  0.74899753  0.90457634  0.00797230  1
  I  I43  1  0.74761460  0.55911659  0.93213526  1
  I  I44  1  0.90700089  0.24881131  0.01063155  1
  I  I45  1  0.09303538  0.75098959  0.98938021  1
  I  I46  1  0.57161319  0.24740072  0.95242089  1
  I  I47  1  0.42849040  0.75264262  0.04749635  1
  I  I48  1  0.99310818  0.98961086  0.69811911  1
  I  I49  1  0.00677372  0.01037014  0.30204623  1
  I  I50  1  0.03202304  0.46564931  0.69999541  1
  I  I51  1  0.96797073  0.53433468  0.30003826  1
  I  I52  1  0.46134017  0.94968032  0.69655651  1
  I  I53  1  0.53853627  0.05046107  0.30332006  1
  I  I54  1  0.43629874  0.48835680  0.69724309  1
  I  I55  1  0.56367354  0.51161973  0.30249658  1
  N  N56  1  0.24328895  0.26651545  0.72445668  1
  N  N57  1  0.23603341  0.32439579  0.46587529  1
  N  N58  1  0.24354708  0.31979473  0.34174609  1
  N  N59  1  0.26067968  0.21585002  0.29506114  1
  N  N60  1  0.26366318  0.14866942  0.38607986  1
  N  N61  1  0.26257708  0.73927481  0.71997019  1
  N  N62  1  0.32528101  0.73065966  0.46038461  1
  N  N63  1  0.32279902  0.73890643  0.33676160  1
  N  N64  1  0.22064007  0.75810737  0.29109987  1
  N  N65  1  0.15278742  0.76210284  0.38257110  1
  N  N66  1  0.73745968  0.26071511  0.28005524  1
  N  N67  1  0.67477712  0.26937654  0.53964991  1
  N  N68  1  0.67726975  0.26107702  0.66324890  1
  N  N69  1  0.77942238  0.24186334  0.70890144  1
  N  N70  1  0.84727177  0.23790896  0.61744094  1
  N  N71  1  0.75662632  0.73351446  0.27554760  1
  N  N72  1  0.76383414  0.67564707  0.53414022  1
  N  N73  1  0.75637117  0.68026213  0.65826374  1
  N  N74  1  0.73923592  0.78420494  0.70498547  1
  N  N75  1  0.73620494  0.85137648  0.61392477  1
