# generated using pymatgen
data_H10PbC5(IN)4
_symmetry_space_group_name_H-M   'P 1'
_cell_length_a   12.52305356
_cell_length_b   12.50918983
_cell_length_c   10.75011734
_cell_angle_alpha   92.80635346
_cell_angle_beta   92.77467834
_cell_angle_gamma   88.50317812
_symmetry_Int_Tables_number   1
_chemical_formula_structural   H10PbC5(IN)4
_chemical_formula_sum   'H40 Pb4 C20 I16 N16'
_cell_volume   1679.57306209
_cell_formula_units_Z   4
loop_
 _symmetry_equiv_pos_site_id
 _symmetry_equiv_pos_as_xyz
  1  'x, y, z'
loop_
 _atom_site_type_symbol
 _atom_site_label
 _atom_site_symmetry_multiplicity
 _atom_site_fract_x
 _atom_site_fract_y
 _atom_site_fract_z
 _atom_site_occupancy
  H  H0  1  0.18648598  0.06798355  0.70908497  1
  H  H1  1  0.11611243  0.17390334  0.63411518  1
  H  H2  1  0.16668073  0.06308515  0.54329363  1
  H  H3  1  0.35465155  0.11062263  0.61365503  1
  H  H4  1  0.38275171  0.28461617  0.72562478  1
  H  H5  1  0.25284543  0.30483973  0.73599373  1
  H  H6  1  0.30955482  0.20134729  0.80747024  1
  H  H7  1  0.28204664  0.47540192  0.39766763  1
  H  H8  1  0.29333283  0.36212553  0.19121885  1
  H  H9  1  0.29148876  0.17320252  0.20718675  1
  H  H10  1  0.05733357  0.80632355  0.71524052  1
  H  H11  1  0.16577904  0.87568796  0.65826472  1
  H  H12  1  0.05923995  0.83483688  0.55430000  1
  H  H13  1  0.10649454  0.64166852  0.58947179  1
  H  H14  1  0.25238064  0.59325478  0.71965607  1
  H  H15  1  0.30269774  0.71513303  0.73305213  1
  H  H16  1  0.18876410  0.68994085  0.80047189  1
  H  H17  1  0.47939281  0.71608493  0.41295199  1
  H  H18  1  0.37446352  0.72679140  0.19917849  1
  H  H19  1  0.18521221  0.73853995  0.20655557  1
  H  H20  1  0.94035066  0.31114903  0.29090542  1
  H  H21  1  0.83149313  0.38182982  0.36021418  1
  H  H22  1  0.93992967  0.33272216  0.45576188  1
  H  H23  1  0.89577350  0.14349319  0.38433668  1
  H  H24  1  0.74207911  0.10726373  0.25809065  1
  H  H25  1  0.69321408  0.23136932  0.26800219  1
  H  H26  1  0.80361584  0.20343132  0.18830191  1
  H  H27  1  0.52685543  0.19700224  0.58521216  1
  H  H28  1  0.63318215  0.21045647  0.79833087  1
  H  H29  1  0.82136067  0.22235522  0.78935771  1
  H  H30  1  0.69320862  0.93476811  0.28688681  1
  H  H31  1  0.62893346  0.83091996  0.35661570  1
  H  H32  1  0.67599781  0.94067869  0.45189069  1
  H  H33  1  0.86646048  0.88854577  0.40389817  1
  H  H34  1  0.90295128  0.72612663  0.28548070  1
  H  H35  1  0.77527578  0.69581376  0.26743283  1
  H  H36  1  0.81744840  0.80409559  0.20030738  1
  H  H37  1  0.76895895  0.52387575  0.59722670  1
  H  H38  1  0.78294167  0.63256743  0.80845638  1
  H  H39  1  0.79012025  0.82193963  0.79649213  1
  Pb  Pb40  1  0.01490376  0.00604360  0.01596941  1
  Pb  Pb41  1  0.00507094  0.49306359  0.00228195  1
  Pb  Pb42  1  0.49711440  0.97511291  0.99524962  1
  Pb  Pb43  1  0.51792735  0.48575798  0.99937878  1
  C  C44  1  0.18305700  0.11582615  0.62617845  1
  C  C45  1  0.28875478  0.17124813  0.61458288  1
  C  C46  1  0.28862649  0.23226068  0.49714220  1
  C  C47  1  0.28597363  0.38851899  0.39688342  1
  C  C48  1  0.29145757  0.32845344  0.28295135  1
  C  C49  1  0.10845972  0.81174682  0.63612434  1
  C  C50  1  0.16543514  0.70527493  0.60765635  1
  C  C51  1  0.23196479  0.71265270  0.49549036  1
  C  C52  1  0.39260537  0.71611547  0.40593334  1
  C  C53  1  0.33749242  0.72714489  0.28906435  1
  C  C54  1  0.88969243  0.31524956  0.37128004  1
  C  C55  1  0.83496794  0.20931213  0.38229797  1
  C  C56  1  0.77196609  0.20901689  0.49784997  1
  C  C57  1  0.61326418  0.20162672  0.59072590  1
  C  C58  1  0.66931721  0.21084639  0.70790449  1
  C  C59  1  0.69392081  0.88807774  0.37060605  1
  C  C60  1  0.80135954  0.83051150  0.39228506  1
  C  C61  1  0.79739261  0.76690974  0.50697700  1
  C  C62  1  0.78175206  0.60963371  0.60142980  1
  C  C63  1  0.78603780  0.66760199  0.71746441  1
  I  I64  1  0.25285541  0.09027134  0.98636092  1
  I  I65  1  0.25582698  0.44728856  0.95539488  1
  I  I66  1  0.75577662  0.92657122  0.02513263  1
  I  I67  1  0.75573393  0.56858355  0.04022467  1
  I  I68  1  0.91332577  0.25321472  0.01057699  1
  I  I69  1  0.07455951  0.74863598  0.99434777  1
  I  I70  1  0.55444941  0.23461455  0.03945492  1
  I  I71  1  0.43300069  0.73387030  0.94950613  1
  I  I72  1  0.94685592  0.01467632  0.74213987  1
  I  I73  1  0.03720488  0.98873156  0.31513985  1
  I  I74  1  0.99475109  0.47827798  0.69702690  1
  I  I75  1  0.03410486  0.53082031  0.28983540  1
  I  I76  1  0.52195909  0.97515268  0.69598271  1
  I  I77  1  0.43788920  0.96381508  0.27640110  1
  I  I78  1  0.51961080  0.44329334  0.70107031  1
  I  I79  1  0.51592055  0.48940204  0.30078887  1
  N  N80  1  0.31056497  0.24474159  0.72673415  1
  N  N81  1  0.28358050  0.34046867  0.50458954  1
  N  N82  1  0.29085987  0.22258912  0.28850130  1
  N  N83  1  0.29016801  0.16991989  0.39324306  1
  N  N84  1  0.23197724  0.67371281  0.72045598  1
  N  N85  1  0.33980394  0.70679743  0.50913478  1
  N  N86  1  0.23138795  0.73184390  0.28913336  1
  N  N87  1  0.17425520  0.72864360  0.39071053  1
  N  N88  1  0.76361488  0.18620908  0.26831788  1
  N  N89  1  0.66453577  0.19891642  0.48525177  1
  N  N90  1  0.77452045  0.21875414  0.70665678  1
  N  N91  1  0.83047197  0.22063394  0.60361728  1
  N  N92  1  0.82625817  0.75963514  0.28060866  1
  N  N93  1  0.78668651  0.65986383  0.49519518  1
  N  N94  1  0.79017644  0.77346015  0.71502330  1
  N  N95  1  0.79592154  0.82780861  0.61207968  1
