# generated using pymatgen
data_H8PbC3S(IN)4
_symmetry_space_group_name_H-M   'P 1'
_cell_length_a   12.05801468
_cell_length_b   12.05513639
_cell_length_c   11.66728281
_cell_angle_alpha   89.44522874
_cell_angle_beta   90.04883134
_cell_angle_gamma   89.98660618
_symmetry_Int_Tables_number   1
_chemical_formula_structural   H8PbC3S(IN)4
_chemical_formula_sum   'H32 Pb4 C12 S4 I16 N16'
_cell_volume   1695.88786702
_cell_formula_units_Z   4
loop_
 _symmetry_equiv_pos_site_id
 _symmetry_equiv_pos_as_xyz
  1  'x, y, z'
loop_
 _atom_site_type_symbol
 _atom_site_label
 _atom_site_symmetry_multiplicity
 _atom_site_fract_x
 _atom_site_fract_y
 _atom_site_fract_z
 _atom_site_occupancy
  H  H0  1  0.19835219  0.19114097  0.82918192  1
  H  H1  1  0.29413436  0.28546140  0.79876893  1
  H  H2  1  0.16114430  0.31838246  0.77748500  1
  H  H3  1  0.14081027  0.18061390  0.63099575  1
  H  H4  1  0.28073533  0.13939255  0.65237345  1
  H  H5  1  0.21087836  0.37723038  0.57926831  1
  H  H6  1  0.34832418  0.32849470  0.58936015  1
  H  H7  1  0.24583662  0.22304514  0.16508018  1
  H  H8  1  0.18982541  0.79951886  0.82711610  1
  H  H9  1  0.28423842  0.70360838  0.79838863  1
  H  H10  1  0.31635071  0.83796134  0.77661040  1
  H  H11  1  0.17949549  0.85738066  0.62896224  1
  H  H12  1  0.13934697  0.71666541  0.65024599  1
  H  H13  1  0.37654022  0.78802860  0.58040582  1
  H  H14  1  0.32740705  0.65016624  0.58996401  1
  H  H15  1  0.22297545  0.75616608  0.16404747  1
  H  H16  1  0.81049178  0.28793229  0.17073444  1
  H  H17  1  0.71356053  0.19547220  0.20500487  1
  H  H18  1  0.68564869  0.33098319  0.21949220  1
  H  H19  1  0.81915645  0.35169093  0.36843711  1
  H  H20  1  0.86134947  0.21124794  0.35107715  1
  H  H21  1  0.62348974  0.28062907  0.41979274  1
  H  H22  1  0.67314232  0.14309349  0.41121569  1
  H  H23  1  0.77650128  0.24617890  0.83604264  1
  H  H24  1  0.70997228  0.80799170  0.16892235  1
  H  H25  1  0.80639317  0.71510759  0.20272344  1
  H  H26  1  0.67354994  0.68065862  0.21950720  1
  H  H27  1  0.64880605  0.81794092  0.36721540  1
  H  H28  1  0.78832951  0.86089274  0.34769905  1
  H  H29  1  0.72154857  0.62204864  0.42017561  1
  H  H30  1  0.85836275  0.67341558  0.41107851  1
  H  H31  1  0.75166822  0.77601515  0.83467436  1
  Pb  Pb32  1  0.99127117  1.00076321  0.01505412  1
  Pb  Pb33  1  0.00735342  0.50284786  0.99883774  1
  Pb  Pb34  1  0.49308282  0.00072519  0.99924380  1
  Pb  Pb35  1  0.50422985  0.49909673  0.99053347  1
  C  C36  1  0.22419429  0.21082133  0.65184703  1
  C  C37  1  0.26248605  0.30232505  0.56930297  1
  C  C38  1  0.25719327  0.26245634  0.44928415  1
  C  C39  1  0.20998565  0.77399449  0.65050704  1
  C  C40  1  0.30183145  0.73641021  0.56943208  1
  C  C41  1  0.26231415  0.74287519  0.44892946  1
  C  C42  1  0.78989832  0.26772710  0.34921843  1
  C  C43  1  0.69844343  0.22920025  0.43094986  1
  C  C44  1  0.73795992  0.23449911  0.55141939  1
  C  C45  1  0.73274196  0.78863534  0.34749732  1
  C  C46  1  0.77187306  0.69778393  0.43038308  1
  C  C47  1  0.76496945  0.73744514  0.55041566  1
  S  S48  1  0.25294231  0.34498626  0.32917723  1
  S  S49  1  0.34509717  0.74899551  0.32977269  1
  S  S50  1  0.65544371  0.23111041  0.67086988  1
  S  S51  1  0.76923575  0.65504306  0.67069551  1
  I  I52  1  0.24304538  0.07614846  0.00919100  1
  I  I53  1  0.25716593  0.41976584  0.02814037  1
  I  I54  1  0.74158686  0.92237848  0.99044093  1
  I  I55  1  0.75555481  0.57842022  0.97135929  1
  I  I56  1  0.92586866  0.25491887  0.99434755  1
  I  I57  1  0.07742488  0.75348991  0.00644404  1
  I  I58  1  0.58075700  0.24823790  0.97323325  1
  I  I59  1  0.42274653  0.74675724  0.02823631  1
  I  I60  1  0.00756002  0.99564544  0.73929346  1
  I  I61  1  0.96985279  0.00640878  0.28601644  1
  I  I62  1  0.04241021  0.49752073  0.72061197  1
  I  I63  1  0.98983254  0.50101290  0.27250612  1
  I  I64  1  0.46393120  0.98390953  0.71988492  1
  I  I65  1  0.51700743  0.01112455  0.27223443  1
  I  I66  1  0.48272795  0.50150145  0.71713747  1
  I  I67  1  0.54751758  0.49574627  0.27728235  1
  N  N68  1  0.21915841  0.25428399  0.77109190  1
  N  N69  1  0.25353533  0.15402617  0.42460156  1
  N  N70  1  0.24873465  0.13496622  0.31433569  1
  N  N71  1  0.24871516  0.22701755  0.25465415  1
  N  N72  1  0.25308887  0.77872113  0.77011646  1
  N  N73  1  0.15399843  0.74591955  0.42283849  1
  N  N74  1  0.13503048  0.75178936  0.31226878  1
  N  N75  1  0.22709313  0.75353041  0.25371354  1
  N  N76  1  0.74695278  0.27059333  0.22929742  1
  N  N77  1  0.84590772  0.24439609  0.57725994  1
  N  N78  1  0.86488278  0.24846445  0.68783589  1
  N  N79  1  0.77296253  0.24370174  0.74653221  1
  N  N80  1  0.73019996  0.74521914  0.22810850  1
  N  N81  1  0.75272920  0.84520846  0.57503684  1
  N  N82  1  0.74764801  0.86401839  0.68545175  1
  N  N83  1  0.75408104  0.77223828  0.74507868  1
