# generated using pymatgen
data_H7PbC2I4N5
_symmetry_space_group_name_H-M   'P 1'
_cell_length_a   12.11779314
_cell_length_b   12.03666915
_cell_length_c   10.40263185
_cell_angle_alpha   95.58824104
_cell_angle_beta   94.24145133
_cell_angle_gamma   88.64317440
_symmetry_Int_Tables_number   1
_chemical_formula_structural   H7PbC2I4N5
_chemical_formula_sum   'H28 Pb4 C8 I16 N20'
_cell_volume   1505.75122551
_cell_formula_units_Z   4
loop_
 _symmetry_equiv_pos_site_id
 _symmetry_equiv_pos_as_xyz
  1  'x, y, z'
loop_
 _atom_site_type_symbol
 _atom_site_label
 _atom_site_symmetry_multiplicity
 _atom_site_fract_x
 _atom_site_fract_y
 _atom_site_fract_z
 _atom_site_occupancy
  H  H0  1  0.24738107  0.21357726  0.81665126  1
  H  H1  1  0.31549120  0.30740772  0.74275596  1
  H  H2  1  0.17679149  0.30970573  0.73105216  1
  H  H3  1  0.17149733  0.12122119  0.61575116  1
  H  H4  1  0.31867780  0.11542191  0.62808180  1
  H  H5  1  0.25336258  0.22308351  0.19653316  1
  H  H6  1  0.25178951  0.40348932  0.54016180  1
  H  H7  1  0.20866574  0.74863428  0.81273044  1
  H  H8  1  0.30008182  0.67022282  0.72668916  1
  H  H9  1  0.30615540  0.81132448  0.73670400  1
  H  H10  1  0.11608858  0.81987597  0.62847006  1
  H  H11  1  0.11851184  0.67029347  0.61086882  1
  H  H12  1  0.22328109  0.74944058  0.19287910  1
  H  H13  1  0.39844235  0.76957009  0.53462432  1
  H  H14  1  0.79137195  0.25137790  0.18725013  1
  H  H15  1  0.69389953  0.18864771  0.26326343  1
  H  H16  1  0.69988794  0.32974281  0.27321662  1
  H  H17  1  0.88148474  0.32977451  0.38906466  1
  H  H18  1  0.88391182  0.18018774  0.37158059  1
  H  H19  1  0.77680229  0.25066093  0.80713861  1
  H  H20  1  0.60156711  0.23039894  0.46542550  1
  H  H21  1  0.75264165  0.78639443  0.18333265  1
  H  H22  1  0.82330517  0.69032077  0.26895166  1
  H  H23  1  0.68460550  0.69252464  0.25723103  1
  H  H24  1  0.68132386  0.88455636  0.37187701  1
  H  H25  1  0.82849861  0.87879289  0.38427152  1
  H  H26  1  0.74651916  0.77695587  0.80346592  1
  H  H27  1  0.74816426  0.59654182  0.45985899  1
  Pb  Pb28  1  -0.00016663  0.99995110  1.00016707  1
  Pb  Pb29  1  0.99999271  0.50020907  -0.00016500  1
  Pb  Pb30  1  0.49976137  -0.00014203  0.00018578  1
  Pb  Pb31  1  0.49991682  0.49966045  -0.00019612  1
  C  C32  1  0.24652526  0.17244666  0.61726165  1
  C  C33  1  0.24837578  0.22345025  0.49304620  1
  C  C34  1  0.17057466  0.74472923  0.61396340  1
  C  C35  1  0.22209222  0.74602235  0.48912854  1
  C  C36  1  0.82941620  0.25533175  0.38603107  1
  C  C37  1  0.77790363  0.25408631  0.51088582  1
  C  C38  1  0.75349866  0.82755631  0.38273618  1
  C  C39  1  0.75160419  0.77657231  0.50696823  1
  I  I40  1  0.24907324  0.08662341  0.99676150  1
  I  I41  1  0.25467862  0.42851804  0.03946157  1
  I  I42  1  0.75072489  0.91338306  0.00329328  1
  I  I43  1  0.74518895  0.57133646  0.96056216  1
  I  I44  1  0.91342056  0.25206922  0.00685257  1
  I  I45  1  0.08694325  0.74818777  0.99326191  1
  I  I46  1  0.57397056  0.24511109  0.97173452  1
  I  I47  1  0.42620011  0.75431935  0.02818570  1
  I  I48  1  0.99625518  0.99859919  0.69396742  1
  I  I49  1  0.00381122  0.00139510  0.30625641  1
  I  I50  1  0.04259197  0.46496701  0.69187162  1
  I  I51  1  0.95753416  0.53514734  0.30798220  1
  I  I52  1  0.46573066  0.93851705  0.68779938  1
  I  I53  1  0.53429802  0.06145009  0.31246425  1
  I  I54  1  0.42461111  0.49799373  0.68648600  1
  I  I55  1  0.57532923  0.50205428  0.31310203  1
  N  N56  1  0.24706694  0.25572815  0.73276890  1
  N  N57  1  0.25130302  0.16480163  0.37802133  1
  N  N58  1  0.25155363  0.24359403  0.29676350  1
  N  N59  1  0.24924571  0.34674302  0.34868421  1
  N  N60  1  0.24686098  0.33376371  0.47329002  1
  N  N61  1  0.25184472  0.74399917  0.72813913  1
  N  N62  1  0.16475422  0.74358797  0.37469802  1
  N  N63  1  0.24309839  0.74876986  0.29248460  1
  N  N64  1  0.34483480  0.75459928  0.34312357  1
  N  N65  1  0.33142632  0.75200372  0.46800695  1
  N  N66  1  0.74815658  0.25599462  0.27180758  1
  N  N67  1  0.83527240  0.25657514  0.62529488  1
  N  N68  1  0.75695273  0.25133683  0.70753626  1
  N  N69  1  0.65521025  0.24542714  0.65691743  1
  N  N70  1  0.66859073  0.24802752  0.53203262  1
  N  N71  1  0.75300020  0.74424859  0.26721408  1
  N  N72  1  0.74867938  0.83523692  0.62196074  1
  N  N73  1  0.74835783  0.75644310  0.70329624  1
  N  N74  1  0.75062407  0.65326320  0.65132056  1
  N  N75  1  0.75304786  0.66622593  0.52670315  1
