# generated using pymatgen
data_H7PbC2I4N5
_symmetry_space_group_name_H-M   'P 1'
_cell_length_a   11.97204893
_cell_length_b   11.96964823
_cell_length_c   10.46395057
_cell_angle_alpha   92.66330540
_cell_angle_beta   93.11557780
_cell_angle_gamma   90.59811046
_symmetry_Int_Tables_number   1
_chemical_formula_structural   H7PbC2I4N5
_chemical_formula_sum   'H28 Pb4 C8 I16 N20'
_cell_volume   1495.53681752
_cell_formula_units_Z   4
loop_
 _symmetry_equiv_pos_site_id
 _symmetry_equiv_pos_as_xyz
  1  'x, y, z'
loop_
 _atom_site_type_symbol
 _atom_site_label
 _atom_site_symmetry_multiplicity
 _atom_site_fract_x
 _atom_site_fract_y
 _atom_site_fract_z
 _atom_site_occupancy
  H  H0  1  0.26116285  0.24202902  0.81154261  1
  H  H1  1  0.18306698  0.32844025  0.72098431  1
  H  H2  1  0.32344715  0.33754166  0.72144916  1
  H  H3  1  0.32826727  0.13965112  0.62949099  1
  H  H4  1  0.17892990  0.13968847  0.62329872  1
  H  H5  1  0.25319005  0.27018119  0.19347620  1
  H  H6  1  0.24579659  0.11473826  0.34304638  1
  H  H7  1  0.24436688  0.75022247  0.80891090  1
  H  H8  1  0.33833207  0.81467090  0.71924837  1
  H  H9  1  0.33146993  0.67307667  0.71844299  1
  H  H10  1  0.14143405  0.66980512  0.62039192  1
  H  H11  1  0.14192040  0.81897092  0.62684786  1
  H  H12  1  0.27290165  0.74366973  0.19230530  1
  H  H13  1  0.11651505  0.71618321  0.34147096  1
  H  H14  1  0.75565734  0.24975751  0.19107862  1
  H  H15  1  0.66854980  0.32695899  0.28151075  1
  H  H16  1  0.66162361  0.18537754  0.28073346  1
  H  H17  1  0.85801288  0.18101751  0.37319608  1
  H  H18  1  0.85854612  0.33017666  0.37960481  1
  H  H19  1  0.72715061  0.25633136  0.80769438  1
  H  H20  1  0.88345091  0.28395158  0.65850718  1
  H  H21  1  0.73877615  0.75801647  0.18845285  1
  H  H22  1  0.67654745  0.66245200  0.27855810  1
  H  H23  1  0.81691892  0.67162542  0.27899759  1
  H  H24  1  0.82099090  0.86032039  0.37673025  1
  H  H25  1  0.67165307  0.86036213  0.37046798  1
  H  H26  1  0.74689402  0.72992157  0.80651583  1
  H  H27  1  0.75431474  0.88530233  0.65695057  1
  Pb  Pb28  1  0.00013720  0.99980291  0.00007183  1
  Pb  Pb29  1  1.00013218  0.49986859  0.00004272  1
  Pb  Pb30  1  0.49991232  -0.00003810  -0.00011539  1
  Pb  Pb31  1  0.50031092  0.49998800  1.00001071  1
  C  C32  1  0.25401728  0.19325672  0.61718678  1
  C  C33  1  0.25250390  0.24814045  0.49257648  1
  C  C34  1  0.19505978  0.74470105  0.61479686  1
  C  C35  1  0.24994105  0.74449651  0.49051030  1
  C  C36  1  0.80491429  0.25530072  0.38520125  1
  C  C37  1  0.75000895  0.25551356  0.50948492  1
  C  C38  1  0.74588563  0.80677824  0.38280040  1
  C  C39  1  0.74739745  0.75189640  0.50741463  1
  I  I40  1  0.25011490  0.09491989  -0.00006016  1
  I  I41  1  0.24950484  0.42648749  0.02530079  1
  I  I42  1  0.74988409  0.90519088  1.00016696  1
  I  I43  1  0.75084222  0.57356079  0.97463555  1
  I  I44  1  0.90831401  0.24984379  0.02236282  1
  I  I45  1  0.09178298  0.74995569  0.97759687  1
  I  I46  1  0.57503126  0.24956502  0.97608894  1
  I  I47  1  0.42491155  0.75033952  0.02391923  1
  I  I48  1  0.96849436  0.00619479  0.69026474  1
  I  I49  1  0.03144353  0.99374984  0.30984867  1
  I  I50  1  0.01481579  0.44262123  0.69205780  1
  I  I51  1  0.98512611  0.55728261  0.30797902  1
  I  I52  1  0.48157975  0.96802828  0.69358455  1
  I  I53  1  0.51821442  0.03201534  0.30629947  1
  I  I54  1  0.45036025  0.50586818  0.69622783  1
  I  I55  1  0.54964003  0.49414413  0.30381308  1
  N  N56  1  0.25626556  0.28001956  0.72384793  1
  N  N57  1  0.25039218  0.35943111  0.47928710  1
  N  N58  1  0.25052467  0.37766508  0.35529898  1
  N  N59  1  0.25216655  0.28037667  0.29354676  1
  N  N60  1  0.25400062  0.19749192  0.37532422  1
  N  N61  1  0.28238022  0.74610794  0.72138660  1
  N  N62  1  0.36119913  0.75068637  0.47893435  1
  N  N63  1  0.37930352  0.75020394  0.35508265  1
  N  N64  1  0.28177689  0.74350441  0.29231139  1
  N  N65  1  0.19871773  0.74100904  0.37296396  1
  N  N66  1  0.71759584  0.25390495  0.27861015  1
  N  N67  1  0.63875681  0.24930431  0.52109981  1
  N  N68  1  0.62068204  0.24978871  0.64494702  1
  N  N69  1  0.71821849  0.25650330  0.70767477  1
  N  N70  1  0.80125956  0.25900085  0.62702563  1
  N  N71  1  0.74369743  0.71999334  0.27614179  1
  N  N72  1  0.74949858  0.64059655  0.52071760  1
  N  N73  1  0.74943671  0.62239586  0.64471326  1
  N  N74  1  0.74783937  0.71968767  0.70644130  1
  N  N75  1  0.74596073  0.80257444  0.62467169  1
