# generated using pymatgen
data_H8PbC3S(IN)4
_symmetry_space_group_name_H-M   'P 1'
_cell_length_a   12.45693592
_cell_length_b   12.42710665
_cell_length_c   10.41538183
_cell_angle_alpha   87.48494736
_cell_angle_beta   90.48160184
_cell_angle_gamma   89.25056241
_symmetry_Int_Tables_number   1
_chemical_formula_structural   H8PbC3S(IN)4
_chemical_formula_sum   'H32 Pb4 C12 S4 I16 N16'
_cell_volume   1610.58335933
_cell_formula_units_Z   4
loop_
 _symmetry_equiv_pos_site_id
 _symmetry_equiv_pos_as_xyz
  1  'x, y, z'
loop_
 _atom_site_type_symbol
 _atom_site_label
 _atom_site_symmetry_multiplicity
 _atom_site_fract_x
 _atom_site_fract_y
 _atom_site_fract_z
 _atom_site_occupancy
  H  H0  1  0.36245525  0.32150239  0.74558043  1
  H  H1  1  0.39894058  0.23564161  0.61899090  1
  H  H2  1  0.38009660  0.37721215  0.58715716  1
  H  H3  1  0.18225394  0.35622991  0.63775442  1
  H  H4  1  0.12186810  0.16071333  0.67337825  1
  H  H5  1  0.19701168  0.21108097  0.79168979  1
  H  H6  1  0.25282005  0.12871974  0.69014397  1
  H  H7  1  0.18671554  0.10913606  0.24858872  1
  H  H8  1  0.30134421  0.62408446  0.75892856  1
  H  H9  1  0.21119714  0.60056256  0.62864755  1
  H  H10  1  0.35304652  0.60499239  0.60326566  1
  H  H11  1  0.35014340  0.80312618  0.65531573  1
  H  H12  1  0.16564504  0.88692363  0.67381926  1
  H  H13  1  0.20079155  0.79982519  0.79556687  1
  H  H14  1  0.11601210  0.76363413  0.68234064  1
  H  H15  1  0.10618252  0.81821901  0.24502494  1
  H  H16  1  0.69609002  0.12578134  0.25747710  1
  H  H17  1  0.78636087  0.10448044  0.39217569  1
  H  H18  1  0.64425472  0.11004131  0.41518969  1
  H  H19  1  0.64000533  0.30478639  0.33872494  1
  H  H20  1  0.80643024  0.39490149  0.28756076  1
  H  H21  1  0.78710563  0.29288025  0.19358364  1
  H  H22  1  0.87750305  0.28094574  0.31312338  1
  H  H23  1  0.88409764  0.29537122  0.75590427  1
  H  H24  1  0.87344148  0.70438852  0.25454456  1
  H  H25  1  0.89853060  0.79195457  0.38399992  1
  H  H26  1  0.89341527  0.64964938  0.41310733  1
  H  H27  1  0.69628029  0.65453267  0.34762106  1
  H  H28  1  0.61339907  0.84288152  0.31835147  1
  H  H29  1  0.69920200  0.80667558  0.20313609  1
  H  H30  1  0.73831124  0.88863021  0.31460448  1
  H  H31  1  0.68395235  0.88217620  0.75807383  1
  Pb  Pb32  1  0.97326558  0.00473841  0.98163351  1
  Pb  Pb33  1  0.99909859  0.51565444  0.99702943  1
  Pb  Pb34  1  0.47866085  0.01707587  0.99576017  1
  Pb  Pb35  1  0.48772495  0.50737951  0.03705825  1
  C  C36  1  0.35126694  0.30685494  0.64329872  1
  C  C37  1  0.23333760  0.28699869  0.61308919  1
  C  C38  1  0.22177925  0.26421111  0.47344439  1
  C  C39  1  0.28609257  0.63983911  0.65590190  1
  C  C40  1  0.27784347  0.76065669  0.62408064  1
  C  C41  1  0.25907740  0.77892599  0.48255711  1
  C  C42  1  0.71087919  0.14319121  0.35853036  1
  C  C43  1  0.71524126  0.26481744  0.37260628  1
  C  C44  1  0.73488227  0.28516320  0.51142542  1
  C  C45  1  0.85859563  0.71802499  0.35631311  1
  C  C46  1  0.73816678  0.72646409  0.37999039  1
  C  C47  1  0.71878226  0.74078773  0.51980920  1
  S  S48  1  0.24932696  0.35501017  0.34736121  1
  S  S49  1  0.35311348  0.75923920  0.36455962  1
  S  S50  1  0.63569353  0.28302231  0.62615140  1
  S  S51  1  0.73564375  0.63992448  0.63727383  1
  I  I52  1  0.22610894  0.06172138  -0.00043035  1
  I  I53  1  0.24340296  0.43716476  0.95567756  1
  I  I54  1  0.72742556  0.93326435  0.99003286  1
  I  I55  1  0.74535878  0.55527636  0.08326949  1
  I  I56  1  0.94206422  0.26348170  0.98284980  1
  I  I57  1  0.06434368  0.76251052  0.00064093  1
  I  I58  1  0.56743690  0.25588850  0.04850525  1
  I  I59  1  0.43298223  0.75948319  0.96997867  1
  I  I60  1  0.98231149  0.01753277  0.66912601  1
  I  I61  1  0.97373932  0.00632834  0.28265857  1
  I  I62  1  0.98726962  0.54016608  0.68910817  1
  I  I63  1  0.03218717  0.48585885  0.30640123  1
  I  I64  1  0.45910069  0.01825460  0.68893843  1
  I  I65  1  0.46490209  0.98865947  0.30647589  1
  I  I66  1  0.53880308  0.50250117  0.74590863  1
  I  I67  1  0.49927744  0.50673197  0.35920012  1
  N  N68  1  0.19774754  0.19207970  0.69545695  1
  N  N69  1  0.19687095  0.16922277  0.43037970  1
  N  N70  1  0.20437239  0.17444172  0.30343290  1
  N  N71  1  0.23412448  0.26344424  0.24269677  1
  N  N72  1  0.18535262  0.80668388  0.69707568  1
  N  N73  1  0.16377605  0.80254879  0.43131713  1
  N  N74  1  0.17181841  0.80034042  0.30479366  1
  N  N75  1  0.26318394  0.77650005  0.25141576  1
  N  N76  1  0.80219042  0.31134332  0.28849985  1
  N  N77  1  0.83148092  0.29306730  0.56427911  1
  N  N78  1  0.81922954  0.29261673  0.69088357  1
  N  N79  1  0.72461793  0.28565792  0.74194118  1
  N  N80  1  0.69338972  0.82072834  0.30082417  1
  N  N81  1  0.69673221  0.83471863  0.57014779  1
  N  N82  1  0.69709118  0.81946364  0.69673994  1
  N  N83  1  0.71644282  0.72414705  0.75052943  1
