# generated using pymatgen
data_H8PbC3S(IN)4
_symmetry_space_group_name_H-M   'P 1'
_cell_length_a   12.33611238
_cell_length_b   12.31215319
_cell_length_c   11.30403628
_cell_angle_alpha   88.37826486
_cell_angle_beta   88.35542844
_cell_angle_gamma   90.32093210
_symmetry_Int_Tables_number   1
_chemical_formula_structural   H8PbC3S(IN)4
_chemical_formula_sum   'H32 Pb4 C12 S4 I16 N16'
_cell_volume   1715.47347130
_cell_formula_units_Z   4
loop_
 _symmetry_equiv_pos_site_id
 _symmetry_equiv_pos_as_xyz
  1  'x, y, z'
loop_
 _atom_site_type_symbol
 _atom_site_label
 _atom_site_symmetry_multiplicity
 _atom_site_fract_x
 _atom_site_fract_y
 _atom_site_fract_z
 _atom_site_occupancy
  H  H0  1  0.35333166  0.33238836  0.80132585  1
  H  H1  1  0.22347685  0.35656430  0.77497668  1
  H  H2  1  0.26249103  0.22981838  0.81777509  1
  H  H3  1  0.36096546  0.20399328  0.63685511  1
  H  H4  1  0.35015794  0.34538580  0.59949586  1
  H  H5  1  0.15855704  0.18052700  0.61251673  1
  H  H6  1  0.14638604  0.32367588  0.58663303  1
  H  H7  1  0.27012410  0.34862807  0.19383754  1
  H  H8  1  0.32597650  0.64907588  0.80669875  1
  H  H9  1  0.35169666  0.77964432  0.77876951  1
  H  H10  1  0.22400014  0.73931538  0.81864493  1
  H  H11  1  0.20287586  0.64405533  0.64029511  1
  H  H12  1  0.34442091  0.65798113  0.60645101  1
  H  H13  1  0.18054929  0.84826938  0.60565297  1
  H  H14  1  0.32342676  0.86073960  0.57833029  1
  H  H15  1  0.34642063  0.71976708  0.19907545  1
  H  H16  1  0.67405554  0.14093027  0.19757785  1
  H  H17  1  0.64127977  0.26989720  0.22207290  1
  H  H18  1  0.77024510  0.23746445  0.18214676  1
  H  H19  1  0.79606821  0.13842385  0.36336082  1
  H  H20  1  0.65469307  0.14969189  0.40048136  1
  H  H21  1  0.81914137  0.34193660  0.38537833  1
  H  H22  1  0.67695066  0.35440692  0.41197905  1
  H  H23  1  0.65355800  0.22912779  0.80500881  1
  H  H24  1  0.85162763  0.67452602  0.19489298  1
  H  H25  1  0.72190235  0.64768581  0.22215010  1
  H  H26  1  0.76055608  0.77605805  0.18111328  1
  H  H27  1  0.85361170  0.80086530  0.35941396  1
  H  H28  1  0.84164139  0.65860579  0.39488712  1
  H  H29  1  0.64970834  0.82049783  0.39309830  1
  H  H30  1  0.63880752  0.67737108  0.42115691  1
  H  H31  1  0.78040572  0.65701418  0.80047417  1
  Pb  Pb32  1  0.00331150  0.99714047  0.98495955  1
  Pb  Pb33  1  0.00305100  0.48793556  0.00461009  1
  Pb  Pb34  1  0.49392425  0.99272203  0.00587880  1
  Pb  Pb35  1  0.51267248  0.49759232  0.00699877  1
  C  C36  1  0.30673321  0.27448991  0.63895029  1
  C  C37  1  0.20075032  0.25350034  0.57541893  1
  C  C38  1  0.22433216  0.24283835  0.44682208  1
  C  C39  1  0.27271236  0.69984727  0.64210134  1
  C  C40  1  0.25295912  0.80578544  0.57198933  1
  C  C41  1  0.24178022  0.77706347  0.44591080  1
  C  C42  1  0.72560988  0.19268835  0.36059959  1
  C  C43  1  0.74664122  0.29949487  0.42294908  1
  C  C44  1  0.75775977  0.27573929  0.55152980  1
  C  C45  1  0.79927090  0.72972559  0.35822956  1
  C  C46  1  0.69277124  0.74864539  0.42734585  1
  C  C47  1  0.72068716  0.76064386  0.55362329  1
  S  S48  1  0.24824497  0.12405364  0.37350464  1
  S  S49  1  0.12298163  0.74886597  0.37553605  1
  S  S50  1  0.87668408  0.24983424  0.62359520  1
  S  S51  1  0.74521438  0.88012258  0.62453294  1
  I  I52  1  0.24612760  0.07442215  0.96248804  1
  I  I53  1  0.25759327  0.45609430  0.02207348  1
  I  I54  1  0.74435348  0.94382201  0.04904545  1
  I  I55  1  0.75942732  0.56057609  0.97842951  1
  I  I56  1  0.92711459  0.24677773  0.04074216  1
  I  I57  1  0.06462311  0.75023861  0.96181593  1
  I  I58  1  0.54592103  0.24499261  0.97707467  1
  I  I59  1  0.44518077  0.74323534  0.02031035  1
  I  I60  1  0.01282297  0.00877973  0.69722523  1
  I  I61  1  0.00057276  0.98633775  0.28796329  1
  I  I62  1  0.03465039  0.48334827  0.71636204  1
  I  I63  1  0.98074745  0.49964860  0.28592979  1
  I  I64  1  0.49694405  0.98036588  0.71399684  1
  I  I65  1  0.49485267  0.99782693  0.29047309  1
  I  I66  1  0.49322124  0.50817998  0.72611463  1
  I  I67  1  0.53118247  0.48581405  0.28871425  1
  N  N68  1  0.28435536  0.29907803  0.76578427  1
  N  N69  1  0.23636334  0.32852855  0.37345110  1
  N  N70  1  0.26252606  0.29313828  0.26698918  1
  N  N71  1  0.27367423  0.18997461  0.24820540  1
  N  N72  1  0.29396491  0.71934279  0.76887361  1
  N  N73  1  0.32696964  0.76125110  0.37430407  1
  N  N74  1  0.29165401  0.72869177  0.27164106  1
  N  N75  1  0.18828484  0.71545668  0.25454570  1
  N  N76  1  0.70149573  0.21254238  0.23330838  1
  N  N77  1  0.67258985  0.26368315  0.62551064  1
  N  N78  1  0.70847238  0.23648470  0.73146180  1
  N  N79  1  0.81150520  0.22448868  0.74939478  1
  N  N80  1  0.78108721  0.70662297  0.23164337  1
  N  N81  1  0.73867112  0.67570714  0.62511329  1
  N  N82  1  0.76994772  0.71180722  0.72792653  1
  N  N83  1  0.77998466  0.81559846  0.74547552  1
