# generated using pymatgen
data_H10PbC5(IN)4
_symmetry_space_group_name_H-M   'P 1'
_cell_length_a   12.53602562
_cell_length_b   12.45052485
_cell_length_c   10.53056636
_cell_angle_alpha   95.91761102
_cell_angle_beta   93.90002900
_cell_angle_gamma   88.91208743
_symmetry_Int_Tables_number   1
_chemical_formula_structural   H10PbC5(IN)4
_chemical_formula_sum   'H40 Pb4 C20 I16 N16'
_cell_volume   1630.94865279
_cell_formula_units_Z   4
loop_
 _symmetry_equiv_pos_site_id
 _symmetry_equiv_pos_as_xyz
  1  'x, y, z'
loop_
 _atom_site_type_symbol
 _atom_site_label
 _atom_site_symmetry_multiplicity
 _atom_site_fract_x
 _atom_site_fract_y
 _atom_site_fract_z
 _atom_site_occupancy
  H  H0  1  0.20159809  0.06506230  0.70363767  1
  H  H1  1  0.12313685  0.16499000  0.62992825  1
  H  H2  1  0.17890864  0.05510116  0.53436711  1
  H  H3  1  0.36395712  0.11981511  0.61248468  1
  H  H4  1  0.24702205  0.30787913  0.74231932  1
  H  H5  1  0.31841669  0.21329716  0.81141857  1
  H  H6  1  0.37829476  0.30440799  0.72984913  1
  H  H7  1  0.25761284  0.09587283  0.34916017  1
  H  H8  1  0.27086301  0.20369453  0.18024438  1
  H  H9  1  0.32157275  0.47892280  0.41402339  1
  H  H10  1  0.05529508  0.78671723  0.71267362  1
  H  H11  1  0.15861699  0.86533491  0.66199116  1
  H  H12  1  0.05433444  0.81528414  0.55127888  1
  H  H13  1  0.11465984  0.62482446  0.57557694  1
  H  H14  1  0.30176517  0.71463030  0.74351648  1
  H  H15  1  0.19002335  0.66977111  0.79597870  1
  H  H16  1  0.26838641  0.58673154  0.70721895  1
  H  H17  1  0.11312013  0.76315266  0.35297706  1
  H  H18  1  0.23251821  0.75078694  0.18883904  1
  H  H19  1  0.48834958  0.68019029  0.42119732  1
  H  H20  1  0.94122191  0.30184588  0.28875699  1
  H  H21  1  0.84213274  0.38421104  0.36613613  1
  H  H22  1  0.94897200  0.32714797  0.45802266  1
  H  H23  1  0.87995152  0.13979481  0.37476265  1
  H  H24  1  0.69353594  0.26311866  0.26632795  1
  H  H25  1  0.78886936  0.19925071  0.18172728  1
  H  H26  1  0.70404093  0.13009841  0.26002035  1
  H  H27  1  0.90229495  0.25132746  0.64459524  1
  H  H28  1  0.79002831  0.24542148  0.81351730  1
  H  H29  1  0.52272445  0.19262971  0.58026084  1
  H  H30  1  0.70576286  0.93542734  0.28851568  1
  H  H31  1  0.62695877  0.84161230  0.35483670  1
  H  H32  1  0.68380869  0.95130097  0.45476244  1
  H  H33  1  0.86874202  0.87782453  0.41571617  1
  H  H34  1  0.75757402  0.69352906  0.25750966  1
  H  H35  1  0.82230797  0.79297973  0.20317236  1
  H  H36  1  0.88743088  0.70195465  0.29142383  1
  H  H37  1  0.74450047  0.89863867  0.65368778  1
  H  H38  1  0.75603832  0.78646963  0.82035422  1
  H  H39  1  0.79727607  0.51311727  0.58480912  1
  Pb  Pb40  1  0.00035498  0.99887478  0.99526942  1
  Pb  Pb41  1  0.01037341  0.49347991  0.99380842  1
  Pb  Pb42  1  0.48715467  0.98238833  0.98648204  1
  Pb  Pb43  1  0.52172455  0.48819549  0.03324060  1
  C  C44  1  0.19338446  0.11152148  0.62056141  1
  C  C45  1  0.29415522  0.17629494  0.61289419  1
  C  C46  1  0.29151526  0.23596938  0.49580234  1
  C  C47  1  0.27736326  0.18055530  0.37165872  1
  C  C48  1  0.30804324  0.39241083  0.40329693  1
  C  C49  1  0.10618903  0.79608189  0.63406328  1
  C  C50  1  0.17001190  0.69289871  0.60148383  1
  C  C51  1  0.23875673  0.70352059  0.49198991  1
  C  C52  1  0.19361961  0.73279383  0.37233854  1
  C  C53  1  0.40253915  0.69415550  0.40794737  1
  C  C54  1  0.89385123  0.31249277  0.37291581  1
  C  C55  1  0.82729182  0.21251861  0.37993498  1
  C  C56  1  0.76674113  0.21683626  0.49866699  1
  C  C57  1  0.81789212  0.23482911  0.62183927  1
  C  C58  1  0.60843564  0.20508427  0.59090570  1
  C  C59  1  0.69815071  0.89225403  0.37297306  1
  C  C60  1  0.79829456  0.82482174  0.39845433  1
  C  C61  1  0.78815833  0.76170303  0.51098786  1
  C  C62  1  0.76450433  0.81382617  0.63194910  1
  C  C63  1  0.79208378  0.60077188  0.59774097  1
  I  I64  1  0.24550524  0.08097111  0.97891683  1
  I  I65  1  0.25714060  0.45430814  0.98763122  1
  I  I66  1  0.75662952  0.92597395  0.01853156  1
  I  I67  1  0.75839888  0.56442301  0.02150802  1
  I  I68  1  0.91911378  0.24620966  0.00933977  1
  I  I69  1  0.07107954  0.74433905  0.99012785  1
  I  I70  1  0.55323658  0.24017282  0.02202886  1
  I  I71  1  0.42182990  0.74501567  0.96827089  1
  I  I72  1  0.93819286  0.01200208  0.69443726  1
  I  I73  1  0.03504251  0.98923952  0.29955896  1
  I  I74  1  0.03088277  0.44396445  0.69209076  1
  I  I75  1  0.03073714  0.54777991  0.30559279  1
  I  I76  1  0.49934171  0.95303872  0.68056186  1
  I  I77  1  0.46416196  0.01509952  0.29093350  1
  I  I78  1  0.50406554  0.46126310  0.72721537  1
  I  I79  1  0.59506242  0.47189983  0.34122335  1
  N  N80  1  0.31108624  0.25470525  0.73046740  1
  N  N81  1  0.27934774  0.24103228  0.27391374  1
  N  N82  1  0.29848222  0.34599764  0.28403456  1
  N  N83  1  0.30274808  0.34255059  0.51054609  1
  N  N84  1  0.23686825  0.66420114  0.71722826  1
  N  N85  1  0.26136992  0.73525560  0.27984557  1
  N  N86  1  0.36583653  0.71375904  0.29161417  1
  N  N87  1  0.34284435  0.68630893  0.50925197  1
  N  N88  1  0.74872601  0.19932465  0.26526921  1
  N  N89  1  0.75508857  0.23659556  0.72019678  1
  N  N90  1  0.65079040  0.22235081  0.71078840  1
  N  N91  1  0.66153384  0.20092877  0.48424007  1
  N  N92  1  0.81793202  0.74929795  0.28176866  1
  N  N93  1  0.76590110  0.75121806  0.72753021  1
  N  N94  1  0.78129311  0.64481970  0.71648104  1
  N  N95  1  0.79896202  0.65506334  0.49405370  1
