# generated using pymatgen
data_H8PbC3S(IN)4
_symmetry_space_group_name_H-M   'P 1'
_cell_length_a   12.37906127
_cell_length_b   12.21581420
_cell_length_c   10.58794870
_cell_angle_alpha   95.55795820
_cell_angle_beta   93.72900078
_cell_angle_gamma   90.63582149
_symmetry_Int_Tables_number   1
_chemical_formula_structural   H8PbC3S(IN)4
_chemical_formula_sum   'H32 Pb4 C12 S4 I16 N16'
_cell_volume   1589.96781533
_cell_formula_units_Z   4
loop_
 _symmetry_equiv_pos_site_id
 _symmetry_equiv_pos_as_xyz
  1  'x, y, z'
loop_
 _atom_site_type_symbol
 _atom_site_label
 _atom_site_symmetry_multiplicity
 _atom_site_fract_x
 _atom_site_fract_y
 _atom_site_fract_z
 _atom_site_occupancy
  H  H0  1  0.17763479  0.11743128  0.72401755  1
  H  H1  1  0.11091966  0.21157156  0.62770548  1
  H  H2  1  0.15779582  0.08453347  0.55619009  1
  H  H3  1  0.35121107  0.14770892  0.62323733  1
  H  H4  1  0.37628816  0.34470173  0.71299870  1
  H  H5  1  0.31253281  0.26431815  0.80806385  1
  H  H6  1  0.24093764  0.35128566  0.72412456  1
  H  H7  1  0.28111294  0.31697864  0.18845018  1
  H  H8  1  0.13189200  0.82609179  0.74459022  1
  H  H9  1  0.22588811  0.89244580  0.65404628  1
  H  H10  1  0.09914140  0.84079636  0.58151268  1
  H  H11  1  0.15757050  0.64659090  0.61489713  1
  H  H12  1  0.34936681  0.62326745  0.69479797  1
  H  H13  1  0.27451544  0.69415913  0.80158927  1
  H  H14  1  0.36319130  0.76040902  0.72101447  1
  H  H15  1  0.32075081  0.72587595  0.18469194  1
  H  H16  1  0.88419090  0.32076679  0.27435544  1
  H  H17  1  0.79950624  0.39638120  0.38062900  1
  H  H18  1  0.91995980  0.33553646  0.44081202  1
  H  H19  1  0.84076306  0.14713237  0.36709290  1
  H  H20  1  0.64254108  0.14212801  0.28742641  1
  H  H21  1  0.73053828  0.19259475  0.19042783  1
  H  H22  1  0.65368048  0.27867154  0.27690990  1
  H  H23  1  0.68489208  0.22616634  0.81464454  1
  H  H24  1  0.66779163  0.86291913  0.26340375  1
  H  H25  1  0.60481853  0.76723665  0.35456813  1
  H  H26  1  0.65171071  0.89777382  0.42789875  1
  H  H27  1  0.84436335  0.84588732  0.38787549  1
  H  H28  1  0.87691985  0.65462077  0.29906662  1
  H  H29  1  0.79968339  0.72433733  0.19800225  1
  H  H30  1  0.74254388  0.63042133  0.27995707  1
  H  H31  1  0.77205979  0.67416063  0.81424903  1
  Pb  Pb32  1  0.98964816  0.99550161  0.00970524  1
  Pb  Pb33  1  0.02643336  0.48659667  0.98789670  1
  Pb  Pb34  1  0.47971405  0.99303825  0.98609978  1
  Pb  Pb35  1  0.53124681  0.49938090  0.00636930  1
  C  C36  1  0.17598494  0.15132607  0.63163643  1
  C  C37  1  0.28469854  0.20686182  0.61537932  1
  C  C38  1  0.28629334  0.25649681  0.49109565  1
  C  C39  1  0.16542115  0.82553968  0.65111907  1
  C  C40  1  0.21713555  0.71492042  0.61494826  1
  C  C41  1  0.26452358  0.71191060  0.48810531  1
  C  C42  1  0.85198980  0.32472132  0.36875248  1
  C  C43  1  0.78801505  0.21940407  0.38147208  1
  C  C44  1  0.74027771  0.22044173  0.50793164  1
  C  C45  1  0.66910049  0.83027913  0.35648919  1
  C  C46  1  0.77977270  0.78235334  0.38782014  1
  C  C47  1  0.78443038  0.73447098  0.51304494  1
  S  S48  1  0.27147420  0.18415636  0.34456004  1
  S  S49  1  0.19291902  0.73352522  0.34967143  1
  S  S50  1  0.81352762  0.23264102  0.65104770  1
  S  S51  1  0.75463013  0.80440153  0.65395245  1
  I  I52  1  0.24261675  0.09311421  0.99088666  1
  I  I53  1  0.27895786  0.44058176  0.02273244  1
  I  I54  1  0.74609080  0.90951406  0.01274493  1
  I  I55  1  0.77942202  0.55969935  0.98380904  1
  I  I56  1  0.90321970  0.23931690  0.00367598  1
  I  I57  1  0.09312494  0.74029352  0.99460655  1
  I  I58  1  0.56137892  0.23952444  0.98177200  1
  I  I59  1  0.43881642  0.74179591  0.01494080  1
  I  I60  1  0.92804963  0.99944184  0.68606947  1
  I  I61  1  0.01606033  0.00071478  0.30559339  1
  I  I62  1  0.05652036  0.45092831  0.69253619  1
  I  I63  1  0.03439288  0.53071537  0.30209194  1
  I  I64  1  0.47437419  0.93899917  0.68787942  1
  I  I65  1  0.46972551  0.02482476  0.29474153  1
  I  I66  1  0.51197433  0.49317889  0.70268539  1
  I  I67  1  0.58760160  0.48386493  0.30330897  1
  N  N68  1  0.30595919  0.29690277  0.72128678  1
  N  N69  1  0.30059005  0.36487194  0.48491296  1
  N  N70  1  0.29949614  0.39233767  0.36889120  1
  N  N71  1  0.28246303  0.30540576  0.28566746  1
  N  N72  1  0.30587288  0.69576951  0.71341770  1
  N  N73  1  0.36911696  0.69203888  0.47209265  1
  N  N74  1  0.39485121  0.69596831  0.35510131  1
  N  N75  1  0.31027279  0.72062008  0.28165849  1
  N  N76  1  0.69813629  0.20602396  0.27826869  1
  N  N77  1  0.63382152  0.20801849  0.51962619  1
  N  N78  1  0.60858041  0.20971256  0.63765200  1
  N  N79  1  0.69525846  0.22346239  0.71646270  1
  N  N80  1  0.80187075  0.69315671  0.28572517  1
  N  N81  1  0.81108173  0.62988209  0.52468502  1
  N  N82  1  0.80797004  0.60283982  0.64087944  1
  N  N83  1  0.77613811  0.68585857  0.71725366  1
