# generated using pymatgen
data_H10PbC5(IN)4
_symmetry_space_group_name_H-M   'P 1'
_cell_length_a   12.67088314
_cell_length_b   12.78772298
_cell_length_c   10.27333722
_cell_angle_alpha   92.63916830
_cell_angle_beta   93.69197285
_cell_angle_gamma   90.39189165
_symmetry_Int_Tables_number   1
_chemical_formula_structural   H10PbC5(IN)4
_chemical_formula_sum   'H40 Pb4 C20 I16 N16'
_cell_volume   1659.30989326
_cell_formula_units_Z   4
loop_
 _symmetry_equiv_pos_site_id
 _symmetry_equiv_pos_as_xyz
  1  'x, y, z'
loop_
 _atom_site_type_symbol
 _atom_site_label
 _atom_site_symmetry_multiplicity
 _atom_site_fract_x
 _atom_site_fract_y
 _atom_site_fract_z
 _atom_site_occupancy
  H  H0  1  0.37746454  0.24851304  0.77064919  1
  H  H1  1  0.39082507  0.17973305  0.61659890  1
  H  H2  1  0.39746976  0.32019030  0.63034007  1
  H  H3  1  0.20676464  0.32510566  0.68426884  1
  H  H4  1  0.10629601  0.15569603  0.66686691  1
  H  H5  1  0.21653034  0.09526840  0.63166382  1
  H  H6  1  0.20760076  0.15032827  0.78028164  1
  H  H7  1  0.22635336  0.43104485  0.47457405  1
  H  H8  1  0.22657632  0.41352402  0.22573001  1
  H  H9  1  0.20088941  0.10038492  0.24267411  1
  H  H10  1  0.23682943  0.61934856  0.75395887  1
  H  H11  1  0.16300462  0.61108897  0.59870047  1
  H  H12  1  0.30427244  0.59967113  0.60936572  1
  H  H13  1  0.32180078  0.78646924  0.69698122  1
  H  H14  1  0.17012609  0.89244786  0.71083627  1
  H  H15  1  0.08996616  0.80244604  0.63588847  1
  H  H16  1  0.14156407  0.78536125  0.78771100  1
  H  H17  1  0.42748967  0.77453600  0.49312460  1
  H  H18  1  0.41298268  0.79162757  0.24251813  1
  H  H19  1  0.09852593  0.81679908  0.25181690  1
  H  H20  1  0.75667619  0.12417366  0.23225568  1
  H  H21  1  0.82622284  0.11890304  0.38959421  1
  H  H22  1  0.68499552  0.10708402  0.37276564  1
  H  H23  1  0.66977373  0.29077513  0.30485755  1
  H  H24  1  0.82012437  0.39955428  0.29239700  1
  H  H25  1  0.90168100  0.31542470  0.36379642  1
  H  H26  1  0.85018583  0.28962811  0.21162522  1
  H  H27  1  0.56648535  0.29096605  0.50882554  1
  H  H28  1  0.58193353  0.29002348  0.76046132  1
  H  H29  1  0.89765223  0.30810462  0.75419659  1
  H  H30  1  0.87121533  0.76505336  0.25060039  1
  H  H31  1  0.88367245  0.83582430  0.40586470  1
  H  H32  1  0.89800527  0.69681565  0.39508768  1
  H  H33  1  0.70660177  0.67704039  0.31124654  1
  H  H34  1  0.59671678  0.82854867  0.30530668  1
  H  H35  1  0.69160144  0.90571593  0.37162151  1
  H  H36  1  0.70052075  0.85537214  0.21882259  1
  H  H37  1  0.72482266  0.57115901  0.52035394  1
  H  H38  1  0.71917104  0.58586566  0.77007239  1
  H  H39  1  0.67362085  0.89603979  0.75002881  1
  Pb  Pb40  1  0.97308861  0.01274212  0.98203512  1
  Pb  Pb41  1  0.99223043  0.52215128  0.00618095  1
  Pb  Pb42  1  0.48703291  0.02569896  0.00585308  1
  Pb  Pb43  1  0.47710169  0.51891609  0.00975657  1
  C  C44  1  0.35917808  0.25031149  0.66479352  1
  C  C45  1  0.24018096  0.25656316  0.63341814  1
  C  C46  1  0.22207032  0.26125526  0.48757387  1
  C  C47  1  0.22359312  0.35495038  0.42252306  1
  C  C48  1  0.22320926  0.34631293  0.28680480  1
  C  C49  1  0.23682623  0.63934800  0.65113019  1
  C  C50  1  0.25023710  0.75701087  0.64009838  1
  C  C51  1  0.25661783  0.78103590  0.49864970  1
  C  C52  1  0.35201362  0.78186817  0.43784224  1
  C  C53  1  0.34562489  0.79405760  0.30312729  1
  C  C54  1  0.75419805  0.14598391  0.33662232  1
  C  C55  1  0.74198940  0.26394363  0.35795143  1
  C  C56  1  0.73756929  0.28703007  0.50264966  1
  C  C57  1  0.64256138  0.29129113  0.56443001  1
  C  C58  1  0.64966607  0.29330235  0.70066051  1
  C  C59  1  0.85469698  0.76302730  0.35414939  1
  C  C60  1  0.73660771  0.74755973  0.36762201  1
  C  C61  1  0.71487682  0.73993720  0.50935603  1
  C  C62  1  0.71781113  0.64611661  0.57322885  1
  C  C63  1  0.71088751  0.65268608  0.70872326  1
  I  I64  1  0.22799154  0.03605487  0.96883875  1
  I  I65  1  0.24037288  0.44056834  0.94859498  1
  I  I66  1  0.72997173  0.94902286  0.01683399  1
  I  I67  1  0.75101243  0.54221165  0.06942291  1
  I  I68  1  0.95918254  0.26199909  0.00938756  1
  I  I69  1  0.03742095  0.76478821  0.98907334  1
  I  I70  1  0.55777671  0.25929115  0.03656123  1
  I  I71  1  0.43612464  0.75472271  0.96981985  1
  I  I72  1  0.95151962  0.01581790  0.66471198  1
  I  I73  1  0.00624909  0.01102681  0.28477384  1
  I  I74  1  0.95847321  0.52503885  0.69862093  1
  I  I75  1  0.02913890  0.52319957  0.32181117  1
  I  I76  1  0.47008784  0.98201054  0.69334935  1
  I  I77  1  0.46884728  0.02897211  0.31382596  1
  I  I78  1  0.50187210  0.50754259  0.70188505  1
  I  I79  1  0.48931258  0.55529177  0.32373008  1
  N  N80  1  0.18865772  0.16064589  0.68038872  1
  N  N81  1  0.21828581  0.25295008  0.22110499  1
  N  N82  1  0.21213007  0.17179175  0.29367439  1
  N  N83  1  0.21463939  0.16860759  0.42101103  1
  N  N84  1  0.15795060  0.81271777  0.69624302  1
  N  N85  1  0.25254988  0.80469429  0.23551417  1
  N  N86  1  0.16944910  0.80447378  0.30474926  1
  N  N87  1  0.16383257  0.79305937  0.43019621  1
  N  N88  1  0.83323673  0.32047089  0.30438332  1
  N  N89  1  0.74369165  0.29667989  0.76912171  1
  N  N90  1  0.82637206  0.29990432  0.69925517  1
  N  N91  1  0.83119760  0.29231986  0.57212761  1
  N  N92  1  0.67772450  0.83896296  0.31252187  1
  N  N93  1  0.69773680  0.74496532  0.77340886  1
  N  N94  1  0.69033736  0.82625589  0.70055239  1
  N  N95  1  0.69960228  0.83155631  0.57499624  1
