# generated using pymatgen
data_H9PbC3I4N5
_symmetry_space_group_name_H-M   'P 1'
_cell_length_a   12.33115883
_cell_length_b   12.22185293
_cell_length_c   10.47672896
_cell_angle_alpha   84.22564693
_cell_angle_beta   85.52077851
_cell_angle_gamma   89.60285071
_symmetry_Int_Tables_number   1
_chemical_formula_structural   H9PbC3I4N5
_chemical_formula_sum   'H36 Pb4 C12 I16 N20'
_cell_volume   1566.13317914
_cell_formula_units_Z   4
loop_
 _symmetry_equiv_pos_site_id
 _symmetry_equiv_pos_as_xyz
  1  'x, y, z'
loop_
 _atom_site_type_symbol
 _atom_site_label
 _atom_site_symmetry_multiplicity
 _atom_site_fract_x
 _atom_site_fract_y
 _atom_site_fract_z
 _atom_site_occupancy
  H  H0  1  0.11244948  0.29787345  0.64419132  1
  H  H1  1  0.18088903  0.39974662  0.71807634  1
  H  H2  1  0.16328605  0.41830503  0.55031081  1
  H  H3  1  0.35446448  0.36295090  0.59517851  1
  H  H4  1  0.31031822  0.26187983  0.79774570  1
  H  H5  1  0.38513527  0.17907560  0.70481096  1
  H  H6  1  0.24944441  0.16053128  0.73197608  1
  H  H7  1  0.36347934  0.08681437  0.28155943  1
  H  H8  1  0.25667401  0.24968877  0.19124377  1
  H  H9  1  0.30523190  0.89782476  0.61866940  1
  H  H10  1  0.40591920  0.82397139  0.70512952  1
  H  H11  1  0.42332985  0.84742526  0.53476201  1
  H  H12  1  0.36528404  0.65233661  0.61739691  1
  H  H13  1  0.26322481  0.68536146  0.80316955  1
  H  H14  1  0.16932993  0.63299831  0.71394182  1
  H  H15  1  0.17320063  0.76660770  0.73127184  1
  H  H16  1  0.10649070  0.62440064  0.29411944  1
  H  H17  1  0.26741275  0.73803478  0.18327156  1
  H  H18  1  0.70530494  0.39348535  0.34278590  1
  H  H19  1  0.59858739  0.32527548  0.27540187  1
  H  H20  1  0.58662322  0.34803787  0.44045252  1
  H  H21  1  0.63621003  0.15058005  0.40585068  1
  H  H22  1  0.73392937  0.18610656  0.20460091  1
  H  H23  1  0.81981931  0.11806613  0.30334895  1
  H  H24  1  0.83393276  0.25330181  0.26282877  1
  H  H25  1  0.92328860  0.14723386  0.71117650  1
  H  H26  1  0.75826139  0.24721571  0.80670865  1
  H  H27  1  0.59793993  0.69701903  0.37358404  1
  H  H28  1  0.66998954  0.59549133  0.29061222  1
  H  H29  1  0.64826645  0.57804482  0.46165589  1
  H  H30  1  0.84069785  0.63714451  0.38111370  1
  H  H31  1  0.80065480  0.74701416  0.19341868  1
  H  H32  1  0.86263878  0.83180599  0.28421091  1
  H  H33  1  0.72672007  0.83836295  0.27336845  1
  H  H34  1  0.80650066  0.89967604  0.72653952  1
  H  H35  1  0.75765904  0.70874341  0.81638276  1
  Pb  Pb36  1  0.03748956  1.00017389  0.00748518  1
  Pb  Pb37  1  0.99137511  0.48912978  0.00853472  1
  Pb  Pb38  1  0.53003129  0.98744971  0.99183549  1
  Pb  Pb39  1  0.49106837  0.49973471  0.00582231  1
  C  C40  1  0.17943774  0.35768653  0.63079064  1
  C  C41  1  0.28782122  0.30155235  0.60377872  1
  C  C42  1  0.29143689  0.24847694  0.48132185  1
  C  C43  1  0.36335013  0.82928440  0.61681965  1
  C  C44  1  0.30617177  0.72132954  0.60714136  1
  C  C45  1  0.25758389  0.71551403  0.48180507  1
  C  C46  1  0.64382059  0.32797063  0.36088469  1
  C  C47  1  0.69708034  0.21769496  0.39481322  1
  C  C48  1  0.75096462  0.21518766  0.51780445  1
  C  C49  1  0.66556958  0.63819348  0.37782046  1
  C  C50  1  0.77275000  0.69652205  0.38882703  1
  C  C51  1  0.77454818  0.74152510  0.51621723  1
  I  I52  1  0.28420365  0.06427478  0.03613333  1
  I  I53  1  0.24381914  0.40159007  0.99385104  1
  I  I54  1  0.78992417  0.94790300  0.94637946  1
  I  I55  1  0.74085374  0.60155185  0.01710586  1
  I  I56  1  0.92750585  0.24429758  0.97690281  1
  I  I57  1  0.06312568  0.74085591  0.03302129  1
  I  I58  1  0.59071012  0.23788726  0.01271164  1
  I  I59  1  0.39670359  0.74315240  0.98517155  1
  I  I60  1  0.09105782  0.02645682  0.69414502  1
  I  I61  1  0.99212017  0.98657676  0.30666051  1
  I  I62  1  0.98292626  0.55126390  0.71638269  1
  I  I63  1  0.96683456  0.45646391  0.32162193  1
  I  I64  1  0.53776880  0.03991606  0.69356487  1
  I  I65  1  0.56049604  0.95827446  0.29968549  1
  I  I66  1  0.50023547  0.49590033  0.70338396  1
  I  I67  1  0.41766531  0.50166351  0.30326654  1
  N  N68  1  0.31043825  0.22043957  0.71581642  1
  N  N69  1  0.34629034  0.15648207  0.45598729  1
  N  N70  1  0.33233280  0.14869829  0.33472766  1
  N  N71  1  0.27018764  0.23124250  0.28868828  1
  N  N72  1  0.24412985  0.29636821  0.37692422  1
  N  N73  1  0.22272372  0.69921307  0.71940777  1
  N  N74  1  0.16971720  0.65504584  0.46468813  1
  N  N75  1  0.16461260  0.66508306  0.34020835  1
  N  N76  1  0.24513807  0.72853737  0.28328850  1
  N  N77  1  0.30535677  0.76182300  0.36858430  1
  N  N78  1  0.77658095  0.19139130  0.28596913  1
  N  N79  1  0.84596556  0.16540135  0.54163504  1
  N  N80  1  0.85620997  0.17815328  0.66244643  1
  N  N81  1  0.77170118  0.23422986  0.70978400  1
  N  N82  1  0.70345608  0.25836643  0.62263068  1
  N  N83  1  0.79293968  0.78402744  0.27872707  1
  N  N84  1  0.80231135  0.84390037  0.53993781  1
  N  N85  1  0.79496241  0.83781195  0.66588261  1
  N  N86  1  0.76299082  0.73800906  0.71620971  1
  N  N87  1  0.74973271  0.67507425  0.62590057  1
