# generated using pymatgen
data_H20PbC22(IN)4
_symmetry_space_group_name_H-M   'P 1'
_cell_length_a   12.61874470
_cell_length_b   12.48594653
_cell_length_c   21.54188007
_cell_angle_alpha   87.87000374
_cell_angle_beta   89.25885245
_cell_angle_gamma   91.01398132
_symmetry_Int_Tables_number   1
_chemical_formula_structural   H20PbC22(IN)4
_chemical_formula_sum   'H80 Pb4 C88 I16 N16'
_cell_volume   3390.88337105
_cell_formula_units_Z   4
loop_
 _symmetry_equiv_pos_site_id
 _symmetry_equiv_pos_as_xyz
  1  'x, y, z'
loop_
 _atom_site_type_symbol
 _atom_site_label
 _atom_site_symmetry_multiplicity
 _atom_site_fract_x
 _atom_site_fract_y
 _atom_site_fract_z
 _atom_site_occupancy
  H  H0  1  0.31308945  0.39374597  0.84797884  1
  H  H1  1  0.31540126  0.26383537  0.87060565  1
  H  H2  1  0.24305436  0.34970083  0.91123232  1
  H  H3  1  0.14137629  0.22677699  0.84407905  1
  H  H4  1  0.11186127  0.36608720  0.84058366  1
  H  H5  1  0.19688001  0.48524824  0.74869027  1
  H  H6  1  0.22500257  0.48900565  0.63426752  1
  H  H7  1  0.24409846  0.95238833  0.56291385  1
  H  H8  1  0.27260743  0.95427766  0.44868342  1
  H  H9  1  0.28405362  0.05175620  0.35029129  1
  H  H10  1  0.29638889  0.15259494  0.24921705  1
  H  H11  1  0.34630052  0.25120822  0.15729159  1
  H  H12  1  0.36078103  0.39258349  0.15563709  1
  H  H13  1  0.16520613  0.26575158  0.13310069  1
  H  H14  1  0.15890753  0.39491836  0.14930164  1
  H  H15  1  0.22854916  0.35655737  0.08759957  1
  H  H16  1  0.28834658  0.49797788  0.24682872  1
  H  H17  1  0.27124512  0.49487317  0.36163850  1
  H  H18  1  0.21525917  0.04414479  0.65704048  1
  H  H19  1  0.18929505  0.13954823  0.75471192  1
  H  H20  1  0.38264039  0.66566353  0.84587442  1
  H  H21  1  0.25262827  0.67514702  0.86323225  1
  H  H22  1  0.34428828  0.73090161  0.90860544  1
  H  H23  1  0.25082883  0.86179232  0.84181043  1
  H  H24  1  0.39115181  0.86866939  0.83926120  1
  H  H25  1  0.49219129  0.80167935  0.74664912  1
  H  H26  1  0.49031898  0.77429799  0.63281867  1
  H  H27  1  0.95665908  0.75403848  0.56020772  1
  H  H28  1  0.95559816  0.72762693  0.44675587  1
  H  H29  1  0.05019803  0.71739785  0.34902282  1
  H  H30  1  0.14769278  0.70567451  0.24925911  1
  H  H31  1  0.23910008  0.65705992  0.15926766  1
  H  H32  1  0.37809030  0.63671686  0.15962860  1
  H  H33  1  0.26711268  0.83895857  0.13160470  1
  H  H34  1  0.39524308  0.84101573  0.14944710  1
  H  H35  1  0.35049090  0.77374751  0.08805852  1
  H  H36  1  0.48974136  0.71137230  0.24928075  1
  H  H37  1  0.48932583  0.72922941  0.36354425  1
  H  H38  1  0.05125434  0.78214786  0.65465725  1
  H  H39  1  0.15058150  0.80840880  0.75251054  1
  H  H40  1  0.60713533  0.15471801  0.15402869  1
  H  H41  1  0.73288000  0.16398685  0.12951213  1
  H  H42  1  0.63986991  0.22749418  0.09013887  1
  H  H43  1  0.75699600  0.34421197  0.15472660  1
  H  H44  1  0.61798590  0.36078101  0.15754755  1
  H  H45  1  0.50933312  0.28535129  0.25166500  1
  H  H46  1  0.51075568  0.26951184  0.36665065  1
  H  H47  1  0.04540441  0.27388972  0.43983723  1
  H  H48  1  0.04572886  0.24676194  0.55444300  1
  H  H49  1  0.95305331  0.21729623  0.65143911  1
  H  H50  1  0.85654272  0.18900996  0.75185458  1
  H  H51  1  0.76931282  0.14711716  0.84460625  1
  H  H52  1  0.63590140  0.09910563  0.84170738  1
  H  H53  1  0.71176665  0.31078007  0.87905269  1
  H  H54  1  0.59181851  0.30134132  0.84772174  1
  H  H55  1  0.62356799  0.22546126  0.91084418  1
  H  H56  1  0.51473086  0.19642014  0.75406639  1
  H  H57  1  0.51371215  0.22621281  0.63944790  1
  H  H58  1  0.94972397  0.28507221  0.34379413  1
  H  H59  1  0.85141545  0.29636575  0.24538475  1
  H  H60  1  0.84561574  0.60730984  0.15635684  1
  H  H61  1  0.84962061  0.73456296  0.13033074  1
  H  H62  1  0.77943751  0.64656551  0.09279822  1
  H  H63  1  0.67483790  0.77169604  0.15781470  1
  H  H64  1  0.64291379  0.63304782  0.16169341  1
  H  H65  1  0.71867503  0.51381012  0.25385417  1
  H  H66  1  0.73139317  0.51117381  0.36868340  1
  H  H67  1  0.72575420  0.04927657  0.44061927  1
  H  H68  1  0.75383754  0.04695103  0.55451444  1
  H  H69  1  0.78366211  0.95061923  0.65084861  1
  H  H70  1  0.81003600  0.84953251  0.75081358  1
  H  H71  1  0.85683211  0.75305724  0.84279030  1
  H  H72  1  0.88142469  0.61437339  0.84097176  1
  H  H73  1  0.68183198  0.71843580  0.87557453  1
  H  H74  1  0.67480642  0.59755978  0.84535152  1
  H  H75  1  0.74618143  0.61764575  0.90902690  1
  H  H76  1  0.80261871  0.50372660  0.75292142  1
  H  H77  1  0.77533114  0.50666340  0.63867387  1
  H  H78  1  0.71509832  0.95521372  0.34508625  1
  H  H79  1  0.70852087  0.85933832  0.24758784  1
  Pb  Pb80  1  0.01014553  0.98037913  0.99355507  1
  Pb  Pb81  1  0.01416680  0.51301887  0.00210570  1
  Pb  Pb82  1  0.47516992  0.02058632  0.00491405  1
  Pb  Pb83  1  0.50919077  0.50789224  0.97509345  1
  C  C84  1  0.17058679  0.30657031  0.82820060  1
  C  C85  1  0.19356450  0.31090919  0.75950002  1
  C  C86  1  0.20350878  0.41024155  0.72450382  1
  C  C87  1  0.21858115  0.41308007  0.66088852  1
  C  C88  1  0.22550136  0.31627583  0.62802837  1
  C  C89  1  0.24688245  0.22873263  0.53572997  1
  C  C90  1  0.23935158  0.12506523  0.56787631  1
  C  C91  1  0.24876267  0.02729833  0.53558385  1
  C  C92  1  0.26378571  0.02835672  0.47331842  1
  C  C93  1  0.26784444  0.12789075  0.43790589  1
  C  C94  1  0.27762601  0.12756204  0.37369740  1
  C  C95  1  0.27863073  0.22422340  0.33879673  1
  C  C96  1  0.28814644  0.22769984  0.27319045  1
  C  C97  1  0.29056186  0.32434210  0.24021189  1
  C  C98  1  0.30881555  0.32524006  0.17131052  1
  C  C99  1  0.28403521  0.42143995  0.27280222  1
  C  C100  1  0.27457839  0.42068630  0.33662872  1
  C  C101  1  0.27108386  0.32197971  0.37198791  1
  C  C102  1  0.25981464  0.23005193  0.46727935  1
  C  C103  1  0.22254186  0.12143330  0.63172415  1
  C  C104  1  0.21544332  0.21652911  0.66373415  1
  C  C105  1  0.19917607  0.21619428  0.72895154  1
  C  C106  1  0.32195264  0.82102902  0.82580870  1
  C  C107  1  0.32051217  0.80471687  0.75711004  1
  C  C108  1  0.41687827  0.79551443  0.72249217  1
  C  C109  1  0.41673479  0.78045351  0.65941681  1
  C  C110  1  0.31932785  0.77288474  0.62697814  1
  C  C111  1  0.22949488  0.75145843  0.53498590  1
  C  C112  1  0.12801080  0.75853944  0.56649954  1
  C  C113  1  0.03028483  0.74967322  0.53368154  1
  C  C114  1  0.02975981  0.73574283  0.47170178  1
  C  C115  1  0.12733640  0.73199133  0.43700355  1
  C  C116  1  0.12568964  0.72326727  0.37301051  1
  C  C117  1  0.22075176  0.72239616  0.33898073  1
  C  C118  1  0.22261974  0.71306405  0.27371277  1
  C  C119  1  0.31737489  0.70969596  0.24155820  1
  C  C120  1  0.31545238  0.69134101  0.17321980  1
  C  C121  1  0.41457595  0.71599630  0.27457294  1
  C  C122  1  0.41528515  0.72582427  0.33811793  1
  C  C123  1  0.31836562  0.72944282  0.37267330  1
  C  C124  1  0.22919063  0.73940003  0.46688853  1
  C  C125  1  0.12679779  0.77509973  0.62991526  1
  C  C126  1  0.22215509  0.78276361  0.66214949  1
  C  C127  1  0.22505746  0.79934731  0.72689334  1
  C  C128  1  0.68193704  0.30698061  0.17137068  1
  C  C129  1  0.68156838  0.28846349  0.24057093  1
  C  C130  1  0.58476905  0.28167081  0.27576656  1
  C  C131  1  0.58464089  0.27305897  0.33978546  1
  C  C132  1  0.68182520  0.27089043  0.37280440  1
  C  C133  1  0.77195978  0.26147548  0.46582970  1
  C  C134  1  0.87348183  0.26933858  0.43370073  1
  C  C135  1  0.97157504  0.26550553  0.46652404  1
  C  C136  1  0.97190189  0.25104390  0.52905610  1
  C  C137  1  0.87460750  0.24176442  0.56400395  1
  C  C138  1  0.87711920  0.22469140  0.62800851  1
  C  C139  1  0.78248194  0.21700979  0.66248450  1
  C  C140  1  0.78140697  0.19978888  0.72789105  1
  C  C141  1  0.68698897  0.19318844  0.76064291  1
  C  C142  1  0.68930506  0.16698906  0.82916960  1
  C  C143  1  0.58948373  0.20359183  0.72802926  1
  C  C144  1  0.58811527  0.21961915  0.66439636  1
  C  C145  1  0.68456297  0.22704730  0.62917498  1
  C  C146  1  0.77259795  0.24905487  0.53440443  1
  C  C147  1  0.87441093  0.27857446  0.36931032  1
  C  C148  1  0.77905581  0.27874014  0.33698056  1
  C  C149  1  0.77658110  0.28743707  0.27129845  1
  C  C150  1  0.70227241  0.69300922  0.17448646  1
  C  C151  1  0.71703758  0.68860633  0.24310914  1
  C  C152  1  0.72200174  0.58921669  0.27794224  1
  C  C153  1  0.72875291  0.58679515  0.34179858  1
  C  C154  1  0.73053493  0.68398474  0.37461703  1
  C  C155  1  0.74019289  0.77270482  0.46684690  1
  C  C156  1  0.73145250  0.87606417  0.43487215  1
  C  C157  1  0.73489516  0.97422907  0.46730019  1
  C  C158  1  0.74989219  0.97308987  0.52937926  1
  C  C159  1  0.75988621  0.87385655  0.56415136  1
  C  C160  1  0.77660410  0.87450402  0.62766729  1
  C  C161  1  0.78387939  0.77767928  0.66196105  1
  C  C162  1  0.79985308  0.77433271  0.72692380  1
  C  C163  1  0.80504485  0.67759160  0.75936478  1
  C  C164  1  0.82456975  0.67623295  0.82772976  1
  C  C165  1  0.79601595  0.58012886  0.72701756  1
  C  C166  1  0.78128556  0.58074882  0.66376352  1
  C  C167  1  0.77416174  0.67964513  0.62899588  1
  C  C168  1  0.75296381  0.77159147  0.53488051  1
  C  C169  1  0.72193050  0.87872577  0.37082648  1
  C  C170  1  0.72252804  0.78332751  0.33898946  1
  C  C171  1  0.71612515  0.78324038  0.27364212  1
  I  I172  1  0.23415398  0.88503529  0.99182486  1
  I  I173  1  0.26773892  0.54750360  1.01028527  1
  I  I174  1  0.71556948  0.07240929  0.99454987  1
  I  I175  1  0.76404201  0.43665771  0.97904394  1
  I  I176  1  0.06766878  0.26893572  0.99589403  1
  I  I177  1  0.89384799  0.75473442  0.99271965  1
  I  I178  1  0.43749339  0.26198376  0.02324295  1
  I  I179  1  0.54413701  0.76321820  0.96733875  1
  I  I180  1  -0.00078162  0.00348802  0.84292967  1
  I  I181  1  0.01544863  0.97928725  0.14203521  1
  I  I182  1  0.08105236  0.57667962  0.86359680  1
  I  I183  1  0.00440597  0.50159400  0.16672661  1
  I  I184  1  0.41364590  0.09063813  0.86835604  1
  I  I185  1  0.49403280  0.00021012  0.17154438  1
  I  I186  1  0.49911958  0.49421226  0.81648587  1
  I  I187  1  0.51965255  0.51911501  0.11355912  1
  N  N188  1  0.26673904  0.33089888  0.86676949  1
  N  N189  1  0.24001484  0.32053061  0.56534833  1
  N  N190  1  0.20975037  0.33564378  0.13356795  1
  N  N191  1  0.26172929  0.32316030  0.43480641  1
  N  N192  1  0.32579355  0.71647229  0.86289540  1
  N  N193  1  0.32123217  0.75831667  0.56481261  1
  N  N194  1  0.33349654  0.79176890  0.13355196  1
  N  N195  1  0.32079605  0.73809137  0.43526349  1
  N  N196  1  0.66530241  0.20796916  0.13464320  1
  N  N197  1  0.68003326  0.26253143  0.43584441  1
  N  N198  1  0.65166938  0.25729394  0.86843427  1
  N  N199  1  0.68135005  0.24189268  0.56646762  1
  N  N200  1  0.79938203  0.66878925  0.13698734  1
  N  N201  1  0.73920696  0.68053464  0.43735011  1
  N  N202  1  0.72587876  0.65167103  0.86607612  1
  N  N203  1  0.75997245  0.67836525  0.56671915  1
