# generated using pymatgen
data_H9PbC3I4N5
_symmetry_space_group_name_H-M   'P 1'
_cell_length_a   12.48121776
_cell_length_b   12.47492146
_cell_length_c   10.20675783
_cell_angle_alpha   95.87212496
_cell_angle_beta   95.41514707
_cell_angle_gamma   87.91412562
_symmetry_Int_Tables_number   1
_chemical_formula_structural   H9PbC3I4N5
_chemical_formula_sum   'H36 Pb4 C12 I16 N20'
_cell_volume   1573.24639528
_cell_formula_units_Z   4
loop_
 _symmetry_equiv_pos_site_id
 _symmetry_equiv_pos_as_xyz
  1  'x, y, z'
loop_
 _atom_site_type_symbol
 _atom_site_label
 _atom_site_symmetry_multiplicity
 _atom_site_fract_x
 _atom_site_fract_y
 _atom_site_fract_z
 _atom_site_occupancy
  H  H0  1  0.13322049  0.13694721  0.72203574  1
  H  H1  1  0.09978498  0.25609999  0.64150492  1
  H  H2  1  0.10232414  0.12683228  0.54791091  1
  H  H3  1  0.30194201  0.10833867  0.60564523  1
  H  H4  1  0.28275499  0.32624345  0.75654298  1
  H  H5  1  0.30450540  0.20705901  0.81498610  1
  H  H6  1  0.39786539  0.25550463  0.73212863  1
  H  H7  1  0.25588407  0.23545079  0.18402683  1
  H  H8  1  0.34676191  0.39478070  0.53617811  1
  H  H9  1  0.15219745  0.88298374  0.75229749  1
  H  H10  1  0.27200271  0.89596022  0.67111893  1
  H  H11  1  0.14112345  0.90685964  0.58332817  1
  H  H12  1  0.10879058  0.71358395  0.60149648  1
  H  H13  1  0.31810803  0.71865262  0.77017256  1
  H  H14  1  0.19444919  0.69425568  0.80583738  1
  H  H15  1  0.25743681  0.60442892  0.70411118  1
  H  H16  1  0.23286852  0.73840312  0.18882445  1
  H  H17  1  0.39816856  0.64597937  0.51507106  1
  H  H18  1  0.86225614  0.36521438  0.28022529  1
  H  H19  1  0.74630990  0.39382524  0.36896525  1
  H  H20  1  0.87877080  0.39057887  0.45510258  1
  H  H21  1  0.90037505  0.19491192  0.38998330  1
  H  H22  1  0.67678584  0.19392451  0.25507752  1
  H  H23  1  0.79252411  0.19969439  0.18264962  1
  H  H24  1  0.77116515  0.09421162  0.26383947  1
  H  H25  1  0.77790258  0.23040565  0.81568832  1
  H  H26  1  0.60974852  0.15828673  0.46237959  1
  H  H27  1  0.62123317  0.84410902  0.24595430  1
  H  H28  1  0.60351474  0.72403200  0.32308258  1
  H  H29  1  0.59316884  0.85399598  0.41421017  1
  H  H30  1  0.78856141  0.88382348  0.40024969  1
  H  H31  1  0.78161213  0.67645109  0.22685500  1
  H  H32  1  0.81384646  0.79955354  0.19836475  1
  H  H33  1  0.89699565  0.72753899  0.29922484  1
  H  H34  1  0.76064882  0.75593965  0.80985469  1
  H  H35  1  0.85957120  0.59750339  0.48198239  1
  Pb  Pb36  1  0.00423339  0.00489531  0.01578817  1
  Pb  Pb37  1  1.00698606  0.49950071  0.98435891  1
  Pb  Pb38  1  0.50004665  0.99431147  0.97756403  1
  Pb  Pb39  1  0.51044693  0.50028273  0.02081133  1
  C  C40  1  0.14111113  0.17673957  0.63266766  1
  C  C41  1  0.25976006  0.18788426  0.61312957  1
  C  C42  1  0.27169302  0.23651085  0.48716729  1
  C  C43  1  0.18966928  0.86581230  0.65941901  1
  C  C44  1  0.19096396  0.74482699  0.61854316  1
  C  C45  1  0.23910845  0.72372285  0.48900116  1
  C  C46  1  0.82625907  0.35388956  0.37149121  1
  C  C47  1  0.81973759  0.23433706  0.38593096  1
  C  C48  1  0.77411664  0.21829256  0.51252490  1
  C  C49  1  0.63545758  0.80574599  0.33813974  1
  C  C50  1  0.75587402  0.80199001  0.38165006  1
  C  C51  1  0.77538430  0.75328916  0.51005174  1
  I  I52  1  0.24919745  0.08791489  0.98524747  1
  I  I53  1  0.26050733  0.43847215  0.01443402  1
  I  I54  1  0.75109767  0.92053656  0.01877501  1
  I  I55  1  0.75221377  0.57065701  0.98335269  1
  I  I56  1  0.92039520  0.25248864  0.02049583  1
  I  I57  1  0.07787057  0.74637879  0.99243680  1
  I  I58  1  0.56603966  0.24931657  0.97014733  1
  I  I59  1  0.42556545  0.75810457  0.01138109  1
  I  I60  1  0.93182884  0.98729634  0.72169352  1
  I  I61  1  0.98232997  0.98580376  0.33167922  1
  I  I62  1  0.05418592  0.48019473  0.67713042  1
  I  I63  1  0.01608818  0.54741910  0.30297285  1
  I  I64  1  0.48360082  0.95862055  0.67352339  1
  I  I65  1  0.49914826  0.07844715  0.30036022  1
  I  I66  1  0.46178231  0.50321543  0.67863215  1
  I  I67  1  0.55786554  0.49671709  0.31691173  1
  N  N68  1  0.31541597  0.24948234  0.73339914  1
  N  N69  1  0.24191339  0.18540030  0.36909245  1
  N  N70  1  0.26350808  0.25572151  0.28629186  1
  N  N71  1  0.30449948  0.34622476  0.33995226  1
  N  N72  1  0.30883616  0.33436316  0.46792397  1
  N  N73  1  0.24526166  0.68650597  0.72846311  1
  N  N74  1  0.18528805  0.75334634  0.37899252  1
  N  N75  1  0.25439689  0.72970309  0.28853994  1
  N  N76  1  0.34688351  0.68689813  0.32940569  1
  N  N77  1  0.33747630  0.68386255  0.45753158  1
  N  N78  1  0.75934475  0.17721566  0.26630889  1
  N  N79  1  0.82865289  0.24112741  0.62998791  1
  N  N80  1  0.75742635  0.22351333  0.71381334  1
  N  N81  1  0.66332569  0.19130853  0.66101268  1
  N  N82  1  0.67376156  0.18867640  0.53288742  1
  N  N83  1  0.81634032  0.74697613  0.27288667  1
  N  N84  1  0.74369378  0.80528616  0.62085348  1
  N  N85  1  0.77056491  0.73653333  0.71017249  1
  N  N86  1  0.81738644  0.64594247  0.66803880  1
  N  N87  1  0.81983824  0.65637437  0.54012691  1
