# generated using pymatgen
data_H7PbC2I4N5
_symmetry_space_group_name_H-M   'P 1'
_cell_length_a   12.23335515
_cell_length_b   12.18683522
_cell_length_c   10.25024143
_cell_angle_alpha   94.65232477
_cell_angle_beta   94.03287083
_cell_angle_gamma   98.56077030
_symmetry_Int_Tables_number   1
_chemical_formula_structural   H7PbC2I4N5
_chemical_formula_sum   'H28 Pb4 C8 I16 N20'
_cell_volume   1500.88812137
_cell_formula_units_Z   4
loop_
 _symmetry_equiv_pos_site_id
 _symmetry_equiv_pos_as_xyz
  1  'x, y, z'
loop_
 _atom_site_type_symbol
 _atom_site_label
 _atom_site_symmetry_multiplicity
 _atom_site_fract_x
 _atom_site_fract_y
 _atom_site_fract_z
 _atom_site_occupancy
  H  H0  1  0.26286165  0.17704798  0.77033807  1
  H  H1  1  0.33030468  0.28853626  0.69960746  1
  H  H2  1  0.19159072  0.26177104  0.69003685  1
  H  H3  1  0.18741156  0.08676643  0.55517074  1
  H  H4  1  0.33605260  0.10800960  0.57258634  1
  H  H5  1  0.19533850  0.39454960  0.27585946  1
  H  H6  1  0.36106782  0.13383272  0.31059671  1
  H  H7  1  0.16216949  0.75190641  0.77851554  1
  H  H8  1  0.23705274  0.67160555  0.69227654  1
  H  H9  1  0.27975854  0.80732344  0.71579612  1
  H  H10  1  0.10859392  0.84063820  0.58457656  1
  H  H11  1  0.07230598  0.69227457  0.55778132  1
  H  H12  1  0.40482600  0.68507948  0.31041759  1
  H  H13  1  0.12619786  0.82633766  0.29949216  1
  H  H14  1  0.83793133  0.24771975  0.22119723  1
  H  H15  1  0.72046929  0.19179902  0.28381724  1
  H  H16  1  0.76246329  0.32767761  0.30710855  1
  H  H17  1  0.92758809  0.30788040  0.44168457  1
  H  H18  1  0.89171224  0.15945189  0.41533659  1
  H  H19  1  0.59549526  0.31456540  0.68980615  1
  H  H20  1  0.87440865  0.17390662  0.70030681  1
  H  H21  1  0.73683587  0.82309328  0.22987655  1
  H  H22  1  0.80844921  0.73851021  0.30998988  1
  H  H23  1  0.66972962  0.71138525  0.30048008  1
  H  H24  1  0.66379525  0.89203651  0.42750320  1
  H  H25  1  0.81242315  0.91326962  0.44504844  1
  H  H26  1  0.80446141  0.60553086  0.72433998  1
  H  H27  1  0.63913932  0.86655013  0.68978767  1
  Pb  Pb28  1  0.99987579  0.99937671  1.00001765  1
  Pb  Pb29  1  0.99906695  0.50024673  0.00037936  1
  Pb  Pb30  1  0.49954921  0.99994966  0.00020951  1
  Pb  Pb31  1  0.49895523  0.49966536  0.99904621  1
  C  C32  1  0.26264115  0.15026917  0.56455587  1
  C  C33  1  0.26251981  0.21555175  0.44785549  1
  C  C34  1  0.14242827  0.76195871  0.57245921  1
  C  C35  1  0.21201753  0.75690117  0.45942513  1
  C  C36  1  0.85763417  0.23801394  0.42725193  1
  C  C37  1  0.78818380  0.24306480  0.54041983  1
  C  C38  1  0.73718624  0.84976290  0.43558972  1
  C  C39  1  0.73727167  0.78450951  0.55229154  1
  I  I40  1  0.25719293  0.06705856  0.95575695  1
  I  I41  1  0.23515073  0.41931727  0.96490194  1
  I  I42  1  0.74203334  0.93445581  0.04596268  1
  I  I43  1  0.76471354  0.58140758  0.03539804  1
  I  I44  1  0.92553313  0.23925805  0.02099438  1
  I  I45  1  0.07630584  0.76044803  0.97977055  1
  I  I46  1  0.57172215  0.26488641  0.06671925  1
  I  I47  1  0.42883697  0.73476327  0.93149910  1
  I  I48  1  0.97346553  0.01081524  0.68644502  1
  I  I49  1  0.02662057  0.98868895  0.31343439  1
  I  I50  1  0.96197457  0.49232592  0.68715508  1
  I  I51  1  0.03784286  0.50793623  0.31322414  1
  I  I52  1  0.50837027  0.99540828  0.68795892  1
  I  I53  1  0.49153870  0.00498383  0.31261376  1
  I  I54  1  0.47431804  0.44261566  0.68122494  1
  I  I55  1  0.52559622  0.55706765  0.31718069  1
  N  N56  1  0.26125003  0.22368710  0.68757352  1
  N  N57  1  0.21014504  0.30255460  0.43568517  1
  N  N58  1  0.23067710  0.32986661  0.31542536  1
  N  N59  1  0.29038835  0.26782671  0.25050677  1
  N  N60  1  0.31073233  0.19504579  0.33468454  1
  N  N61  1  0.20949310  0.74773048  0.69541442  1
  N  N62  1  0.30603294  0.71481074  0.46225030  1
  N  N63  1  0.33494033  0.72070683  0.33979167  1
  N  N64  1  0.26804515  0.76226828  0.26017235  1
  N  N65  1  0.18979113  0.78559143  0.33604302  1
  N  N66  1  0.79044491  0.25176619  0.30419402  1
  N  N67  1  0.69408040  0.28499145  0.53780394  1
  N  N68  1  0.66547241  0.27917013  0.66037765  1
  N  N69  1  0.73258741  0.23782367  0.73990351  1
  N  N70  1  0.81071271  0.21454541  0.66383429  1
  N  N71  1  0.73865499  0.77637719  0.31258099  1
  N  N72  1  0.78944009  0.69734896  0.56440186  1
  N  N73  1  0.76912264  0.67024820  0.68478500  1
  N  N74  1  0.70973393  0.73252098  0.74985801  1
  N  N75  1  0.68934800  0.80528423  0.66563799  1
