# generated using pymatgen
data_H9PbC4I4N5
_symmetry_space_group_name_H-M   'P 1'
_cell_length_a   12.03388559
_cell_length_b   12.03564822
_cell_length_c   12.21383109
_cell_angle_alpha   89.05295026
_cell_angle_beta   89.41158695
_cell_angle_gamma   90.12960676
_symmetry_Int_Tables_number   1
_chemical_formula_structural   H9PbC4I4N5
_chemical_formula_sum   'H36 Pb4 C16 I16 N20'
_cell_volume   1768.65756663
_cell_formula_units_Z   4
loop_
 _symmetry_equiv_pos_site_id
 _symmetry_equiv_pos_as_xyz
  1  'x, y, z'
loop_
 _atom_site_type_symbol
 _atom_site_label
 _atom_site_symmetry_multiplicity
 _atom_site_fract_x
 _atom_site_fract_y
 _atom_site_fract_z
 _atom_site_occupancy
  H  H0  1  0.24901842  0.23903660  0.83022427  1
  H  H1  1  0.31748633  0.34823297  0.77216233  1
  H  H2  1  0.17816177  0.34647009  0.77231912  1
  H  H3  1  0.32307813  0.18368433  0.65597869  1
  H  H4  1  0.17548266  0.18361942  0.65715304  1
  H  H5  1  0.32204027  0.37820141  0.56921539  1
  H  H6  1  0.17572466  0.37721344  0.57128312  1
  H  H7  1  0.24612187  0.14437178  0.18027896  1
  H  H8  1  0.24656624  0.34030732  0.20146234  1
  H  H9  1  0.23815779  0.75309726  0.82993719  1
  H  H10  1  0.34490602  0.68165885  0.77420561  1
  H  H11  1  0.34801333  0.82133060  0.77215154  1
  H  H12  1  0.18366863  0.67870797  0.65705320  1
  H  H13  1  0.18338116  0.82611101  0.65469815  1
  H  H14  1  0.37816357  0.68021245  0.57266594  1
  H  H15  1  0.37765957  0.82653877  0.56939605  1
  H  H16  1  0.14407849  0.75807617  0.17986752  1
  H  H17  1  0.33982163  0.74712943  0.20202869  1
  H  H18  1  0.76183552  0.24695111  0.17005862  1
  H  H19  1  0.65195987  0.17874408  0.22784059  1
  H  H20  1  0.65510390  0.31841541  0.22579671  1
  H  H21  1  0.81657240  0.17389225  0.34529860  1
  H  H22  1  0.81636237  0.32129548  0.34294114  1
  H  H23  1  0.62229625  0.17356822  0.43060487  1
  H  H24  1  0.62186967  0.31989381  0.42732942  1
  H  H25  1  0.85592560  0.24202512  0.82012721  1
  H  H26  1  0.66018122  0.25291068  0.79796547  1
  H  H27  1  0.75094066  0.76095970  0.16977492  1
  H  H28  1  0.82176528  0.65350519  0.22767985  1
  H  H29  1  0.68243837  0.65178647  0.22784034  1
  H  H30  1  0.82451651  0.81633886  0.34284894  1
  H  H31  1  0.67692139  0.81635717  0.34401416  1
  H  H32  1  0.82416106  0.62274664  0.42872375  1
  H  H33  1  0.67784520  0.62184105  0.43078086  1
  H  H34  1  0.75378037  0.85563079  0.81972168  1
  H  H35  1  0.75339010  0.65969556  0.79853568  1
  Pb  Pb36  1  0.99998852  0.99998838  0.99999159  1
  Pb  Pb37  1  0.99999194  0.50003295  0.00001987  1
  Pb  Pb38  1  0.50002736  0.00003393  0.00003263  1
  Pb  Pb39  1  0.50000468  0.49998218  0.99999094  1
  C  C40  1  0.24941073  0.23724014  0.65807727  1
  C  C41  1  0.24910952  0.32270950  0.56442708  1
  C  C42  1  0.24876363  0.27150068  0.45392382  1
  C  C43  1  0.24739362  0.17893351  0.26255766  1
  C  C44  1  0.23724012  0.75267999  0.65779167  1
  C  C45  1  0.32295634  0.75303598  0.56483002  1
  C  C46  1  0.27177769  0.75169730  0.45397955  1
  C  C47  1  0.17886661  0.75563099  0.26227218  1
  C  C48  1  0.76275229  0.24735129  0.34220452  1
  C  C49  1  0.67703776  0.24704335  0.43516593  1
  C  C50  1  0.72821944  0.24835833  0.54601669  1
  C  C51  1  0.82113483  0.24444825  0.73772085  1
  C  C52  1  0.75055935  0.76275996  0.34192168  1
  C  C53  1  0.75080769  0.67729067  0.43557247  1
  C  C54  1  0.75117459  0.72850169  0.54607679  1
  C  C55  1  0.75252752  0.82106769  0.73744150  1
  I  I56  1  0.25035248  0.07593355  0.96050788  1
  I  I57  1  0.25028634  0.42184056  0.02430123  1
  I  I58  1  0.74965132  0.92406006  0.03950245  1
  I  I59  1  0.74969018  0.57815877  0.97570771  1
  I  I60  1  0.92532614  0.24930360  0.04093529  1
  I  I61  1  0.07468333  0.75069946  0.95908789  1
  I  I62  1  0.57873703  0.25075715  0.97587128  1
  I  I63  1  0.42126799  0.74926201  0.02412300  1
  I  I64  1  0.98310358  0.00963389  0.73610874  1
  I  I65  1  0.01692673  0.99036582  0.26388061  1
  I  I66  1  0.01929229  0.48246851  0.73766817  1
  I  I67  1  0.98064925  0.51754721  0.26234780  1
  I  I68  1  0.49987201  0.97456686  0.73671380  1
  I  I69  1  0.50013014  0.02547041  0.26330345  1
  I  I70  1  0.46953535  0.50817456  0.73637636  1
  I  I71  1  0.53042809  0.49185061  0.26360969  1
  N  N72  1  0.24877962  0.29616979  0.76481504  1
  N  N73  1  0.25013251  0.15822668  0.44875302  1
  N  N74  1  0.25000434  0.11098390  0.35173691  1
  N  N75  1  0.24680458  0.28869237  0.27207001  1
  N  N76  1  0.24816582  0.34103014  0.36762888  1
  N  N77  1  0.29564724  0.75247036  0.76515741  1
  N  N78  1  0.15852129  0.74879245  0.44839768  1
  N  N79  1  0.11107736  0.75354786  0.35121239  1
  N  N80  1  0.28849275  0.75004003  0.27223874  1
  N  N81  1  0.34115339  0.75036287  0.36810253  1
  N  N82  1  0.70434333  0.24758960  0.23483930  1
  N  N83  1  0.84147693  0.25123048  0.55159480  1
  N  N84  1  0.88892432  0.24650144  0.64878078  1
  N  N85  1  0.71150797  0.25001492  0.72775773  1
  N  N86  1  0.65884488  0.24969305  0.63189469  1
  N  N87  1  0.75116255  0.70382908  0.23518487  1
  N  N88  1  0.74983971  0.84177668  0.55124568  1
  N  N89  1  0.74994732  0.88901982  0.64826317  1
  N  N90  1  0.75313687  0.71131018  0.72793097  1
  N  N91  1  0.75177351  0.65897194  0.63237149  1
