# generated using pymatgen
data_H10PbC5(IN)4
_symmetry_space_group_name_H-M   'P 1'
_cell_length_a   12.67030357
_cell_length_b   12.43611903
_cell_length_c   10.59394188
_cell_angle_alpha   92.33104357
_cell_angle_beta   92.80629328
_cell_angle_gamma   88.00831409
_symmetry_Int_Tables_number   1
_chemical_formula_structural   H10PbC5(IN)4
_chemical_formula_sum   'H40 Pb4 C20 I16 N16'
_cell_volume   1665.00159346
_cell_formula_units_Z   4
loop_
 _symmetry_equiv_pos_site_id
 _symmetry_equiv_pos_as_xyz
  1  'x, y, z'
loop_
 _atom_site_type_symbol
 _atom_site_label
 _atom_site_symmetry_multiplicity
 _atom_site_fract_x
 _atom_site_fract_y
 _atom_site_fract_z
 _atom_site_occupancy
  H  H0  1  0.37655467  0.27384186  0.80307547  1
  H  H1  1  0.40934007  0.21315488  0.65367876  1
  H  H2  1  0.38577403  0.35502083  0.67195747  1
  H  H3  1  0.19549421  0.32709882  0.71211000  1
  H  H4  1  0.13314456  0.13564878  0.68182988  1
  H  H5  1  0.26203789  0.09539200  0.68604807  1
  H  H6  1  0.21163383  0.15885511  0.81134617  1
  H  H7  1  0.25654296  0.43689430  0.51385612  1
  H  H8  1  0.21976390  0.26193772  0.17121798  1
  H  H9  1  0.16660879  0.11386328  0.28747286  1
  H  H10  1  0.26129354  0.61758794  0.79190696  1
  H  H11  1  0.19837625  0.58993974  0.64022131  1
  H  H12  1  0.33870246  0.60555767  0.65770428  1
  H  H13  1  0.30446553  0.80054567  0.72946585  1
  H  H14  1  0.11611115  0.87053516  0.69152610  1
  H  H15  1  0.08128403  0.74319016  0.66835833  1
  H  H16  1  0.13361904  0.78234115  0.80915745  1
  H  H17  1  0.43038863  0.74163433  0.53952670  1
  H  H18  1  0.28966235  0.82586988  0.19122898  1
  H  H19  1  0.12399133  0.83717001  0.28684424  1
  H  H20  1  0.73553327  0.12272725  0.19923269  1
  H  H21  1  0.79602333  0.10077057  0.35293744  1
  H  H22  1  0.65485070  0.11616917  0.33029213  1
  H  H23  1  0.67142965  0.30638714  0.27340131  1
  H  H24  1  0.84938398  0.38557382  0.29238230  1
  H  H25  1  0.90227228  0.26536304  0.32079037  1
  H  H26  1  0.84212762  0.28658921  0.18039912  1
  H  H27  1  0.56232409  0.25388408  0.47056311  1
  H  H28  1  0.72031619  0.33167388  0.81590689  1
  H  H29  1  0.87517512  0.36089156  0.70210022  1
  H  H30  1  0.85662250  0.76277092  0.20826236  1
  H  H31  1  0.87644578  0.83085053  0.35998838  1
  H  H32  1  0.88789900  0.68749914  0.34306278  1
  H  H33  1  0.69587386  0.67869440  0.27850491  1
  H  H34  1  0.58406628  0.83931478  0.28438272  1
  H  H35  1  0.68273605  0.91431196  0.33748156  1
  H  H36  1  0.68416515  0.85948074  0.19017244  1
  H  H37  1  0.78106663  0.57480603  0.47806306  1
  H  H38  1  0.68186731  0.71577528  0.81877709  1
  H  H39  1  0.64110848  0.87679193  0.71079010  1
  Pb  Pb40  1  0.96683107  0.00320339  0.97478134  1
  Pb  Pb41  1  0.02003692  0.50529713  0.00379126  1
  Pb  Pb42  1  0.46860039  0.01448895  0.99539897  1
  Pb  Pb43  1  0.51705946  0.50215168  0.04446858  1
  C  C44  1  0.36096791  0.27635455  0.70042953  1
  C  C45  1  0.24359531  0.26241395  0.66607335  1
  C  C46  1  0.22638700  0.26559633  0.52524714  1
  C  C47  1  0.24393772  0.36083412  0.46122565  1
  C  C48  1  0.22116277  0.26854465  0.27448892  1
  C  C49  1  0.26184184  0.63436142  0.69099878  1
  C  C50  1  0.24623803  0.75438683  0.67077755  1
  C  C51  1  0.25945494  0.77733851  0.53440850  1
  C  C52  1  0.36112730  0.76766004  0.48217163  1
  C  C53  1  0.28609100  0.81096972  0.29192333  1
  C  C54  1  0.73117351  0.14297700  0.30072911  1
  C  C55  1  0.73681104  0.26424208  0.32540004  1
  C  C56  1  0.72995788  0.29016380  0.46443827  1
  C  C57  1  0.63369739  0.27736167  0.52521916  1
  C  C58  1  0.71796313  0.31884245  0.71322428  1
  C  C59  1  0.84399284  0.75945780  0.30980857  1
  C  C60  1  0.72691760  0.74957371  0.33200944  1
  C  C61  1  0.71113419  0.73850610  0.47038298  1
  C  C62  1  0.74297979  0.64130573  0.53074400  1
  C  C63  1  0.69338901  0.71759910  0.71741818  1
  I  I64  1  0.21895645  0.05385962  0.00575772  1
  I  I65  1  0.25517898  0.42532269  0.98732329  1
  I  I66  1  0.72453066  0.93475042  0.98066811  1
  I  I67  1  0.75531440  0.56075910  0.04475587  1
  I  I68  1  0.93058073  0.25496741  0.97278428  1
  I  I69  1  0.07453207  0.75464948  0.02161324  1
  I  I70  1  0.57697656  0.25740654  0.01270066  1
  I  I71  1  0.44097697  0.76728248  1.00518094  1
  I  I72  1  0.96902734  0.01583751  0.66801186  1
  I  I73  1  0.99684200  0.01619528  0.27649633  1
  I  I74  1  0.00389067  0.50611922  0.69877030  1
  I  I75  1  0.01854218  0.50385453  0.30681783  1
  I  I76  1  0.43699546  0.97808062  0.67755092  1
  I  I77  1  0.45046570  0.04034385  0.29217915  1
  I  I78  1  0.52811725  0.52288210  0.75554423  1
  I  I79  1  0.54657918  0.50865888  0.37370353  1
  N  N80  1  0.20935828  0.15793985  0.71241319  1
  N  N81  1  0.24434420  0.36110678  0.33609294  1
  N  N82  1  0.19619371  0.18201842  0.33595385  1
  N  N83  1  0.19936642  0.17614220  0.46099137  1
  N  N84  1  0.13885528  0.79090888  0.71116443  1
  N  N85  1  0.37368544  0.78450531  0.36062830  1
  N  N86  1  0.19097611  0.81581201  0.34143926  1
  N  N87  1  0.17392645  0.80045288  0.46305936  1
  N  N88  1  0.83723136  0.30330532  0.27781165  1
  N  N89  1  0.62909236  0.28846999  0.65015311  1
  N  N90  1  0.80726197  0.33128579  0.65469895  1
  N  N91  1  0.81729546  0.31638732  0.52972244  1
  N  N92  1  0.66531157  0.84587496  0.28354768  1
  N  N93  1  0.73453782  0.63219081  0.65442683  1
  N  N94  1  0.66974528  0.81023458  0.66058418  1
  N  N95  1  0.67638394  0.82386271  0.53587169  1
