# generated using pymatgen
data_H9PbC3I4N5
_symmetry_space_group_name_H-M   'P 1'
_cell_length_a   12.28579519
_cell_length_b   12.12617917
_cell_length_c   10.59425477
_cell_angle_alpha   92.86698850
_cell_angle_beta   91.79501677
_cell_angle_gamma   91.10258931
_symmetry_Int_Tables_number   1
_chemical_formula_structural   H9PbC3I4N5
_chemical_formula_sum   'H36 Pb4 C12 I16 N20'
_cell_volume   1575.23803616
_cell_formula_units_Z   4
loop_
 _symmetry_equiv_pos_site_id
 _symmetry_equiv_pos_as_xyz
  1  'x, y, z'
loop_
 _atom_site_type_symbol
 _atom_site_label
 _atom_site_symmetry_multiplicity
 _atom_site_fract_x
 _atom_site_fract_y
 _atom_site_fract_z
 _atom_site_occupancy
  H  H0  1  0.18475489  0.10781768  0.71189448  1
  H  H1  1  0.11759247  0.20897436  0.62295957  1
  H  H2  1  0.17179020  0.09023771  0.54345072  1
  H  H3  1  0.36217391  0.15564505  0.61946602  1
  H  H4  1  0.37632835  0.34730011  0.71991779  1
  H  H5  1  0.30993591  0.25454027  0.80771652  1
  H  H6  1  0.23912829  0.34689960  0.72820447  1
  H  H7  1  0.30153676  0.30018612  0.20050463  1
  H  H8  1  0.34960315  0.14780963  0.34811072  1
  H  H9  1  0.11897860  0.82042351  0.72003731  1
  H  H10  1  0.22087250  0.88812567  0.63339735  1
  H  H11  1  0.10186198  0.83039415  0.55302041  1
  H  H12  1  0.16126064  0.63852419  0.61347657  1
  H  H13  1  0.34863142  0.62718167  0.70972003  1
  H  H14  1  0.26011007  0.69675807  0.80331364  1
  H  H15  1  0.35485930  0.76574668  0.72543775  1
  H  H16  1  0.30716371  0.69966464  0.19611185  1
  H  H17  1  0.15163109  0.65671841  0.34364909  1
  H  H18  1  0.89000579  0.31370849  0.28550740  1
  H  H19  1  0.79724494  0.38943997  0.38149696  1
  H  H20  1  0.91100620  0.32482290  0.45304061  1
  H  H21  1  0.83269635  0.13782177  0.37624014  1
  H  H22  1  0.64043063  0.13842757  0.28221248  1
  H  H23  1  0.73792212  0.19319547  0.19221341  1
  H  H24  1  0.65454865  0.27650844  0.27300244  1
  H  H25  1  0.69296097  0.21030412  0.80102490  1
  H  H26  1  0.84128933  0.15867307  0.64986788  1
  H  H27  1  0.67204488  0.88311000  0.28577321  1
  H  H28  1  0.60712364  0.78036532  0.37369348  1
  H  H29  1  0.66348974  0.90177423  0.45342563  1
  H  H30  1  0.85234889  0.84511730  0.38382700  1
  H  H31  1  0.86883485  0.65992076  0.28219220  1
  H  H32  1  0.78980160  0.74307509  0.19497695  1
  H  H33  1  0.73231083  0.64237576  0.27617056  1
  H  H34  1  0.79877293  0.69846380  0.80354410  1
  H  H35  1  0.82933621  0.85787840  0.65538408  1
  Pb  Pb36  1  0.99535857  0.99685486  0.02086040  1
  Pb  Pb37  1  0.02019731  0.48143250  0.98674318  1
  Pb  Pb38  1  0.47802569  0.99021802  0.98627759  1
  Pb  Pb39  1  0.53158032  0.49938370  0.00044871  1
  C  C40  1  0.18500319  0.15072244  0.62311285  1
  C  C41  1  0.29371143  0.21298020  0.61378284  1
  C  C42  1  0.29654811  0.27282789  0.49376235  1
  C  C43  1  0.16138749  0.81909444  0.63033865  1
  C  C44  1  0.21933371  0.70916239  0.61147578  1
  C  C45  1  0.27843520  0.70441501  0.49035106  1
  C  C46  1  0.84909478  0.31664409  0.37614435  1
  C  C47  1  0.78046024  0.21094473  0.38514490  1
  C  C48  1  0.72177613  0.21193188  0.50646682  1
  C  C49  1  0.67476244  0.84099395  0.37506963  1
  C  C50  1  0.78422022  0.78450900  0.38835686  1
  C  C51  1  0.79216956  0.72584074  0.50869444  1
  I  I52  1  0.24552193  0.10051190  0.99101899  1
  I  I53  1  0.27504046  0.43745743  0.02367925  1
  I  I54  1  0.74575743  0.91665679  0.02635614  1
  I  I55  1  0.77810838  0.57668368  0.98036012  1
  I  I56  1  0.89824302  0.23981915  0.00854881  1
  I  I57  1  0.08431046  0.74100690  0.97546477  1
  I  I58  1  0.56655662  0.23917765  0.98086449  1
  I  I59  1  0.42440610  0.73858620  0.01720386  1
  I  I60  1  0.93796123  0.00875093  0.69684391  1
  I  I61  1  0.01765763  0.99866692  0.31130911  1
  I  I62  1  0.04691524  0.44658487  0.69678347  1
  I  I63  1  0.01780263  0.53963606  0.30412735  1
  I  I64  1  0.47389332  0.94925774  0.69447907  1
  I  I65  1  0.46444651  0.01863185  0.30118268  1
  I  I66  1  0.50392576  0.50190096  0.69592240  1
  I  I67  1  0.57813756  0.47996821  0.29512228  1
  N  N68  1  0.30648877  0.29540375  0.72379640  1
  N  N69  1  0.27563994  0.38067250  0.48221839  1
  N  N70  1  0.27765439  0.40033907  0.36036180  1
  N  N71  1  0.29887328  0.30720028  0.29920690  1
  N  N72  1  0.31039575  0.22533743  0.37824975  1
  N  N73  1  0.30026717  0.69813913  0.71851682  1
  N  N74  1  0.38647405  0.71910485  0.47931141  1
  N  N75  1  0.40619138  0.71669454  0.35682795  1
  N  N76  1  0.31297250  0.70036841  0.29517077  1
  N  N77  1  0.23086731  0.69365566  0.37439731  1
  N  N78  1  0.69805976  0.20299776  0.27707372  1
  N  N79  1  0.61506778  0.23101333  0.51960122  1
  N  N80  1  0.59518818  0.23038311  0.64205543  1
  N  N81  1  0.68700059  0.21174981  0.70190588  1
  N  N82  1  0.76866609  0.20107267  0.62162723  1
  N  N83  1  0.79453417  0.70271404  0.27928178  1
  N  N84  1  0.78217707  0.61604846  0.51936417  1
  N  N85  1  0.78569350  0.59711120  0.64169247  1
  N  N86  1  0.79812960  0.69251958  0.70399796  1
  N  N87  1  0.80144621  0.77537343  0.62506333  1
