# generated using pymatgen
data_H10PbC5(IN)4
_symmetry_space_group_name_H-M   'P 1'
_cell_length_a   12.32383502
_cell_length_b   12.22995974
_cell_length_c   10.83268840
_cell_angle_alpha   94.24136587
_cell_angle_beta   93.77427926
_cell_angle_gamma   89.87016745
_symmetry_Int_Tables_number   1
_chemical_formula_structural   H10PbC5(IN)4
_chemical_formula_sum   'H40 Pb4 C20 I16 N16'
_cell_volume   1624.69445087
_cell_formula_units_Z   4
loop_
 _symmetry_equiv_pos_site_id
 _symmetry_equiv_pos_as_xyz
  1  'x, y, z'
loop_
 _atom_site_type_symbol
 _atom_site_label
 _atom_site_symmetry_multiplicity
 _atom_site_fract_x
 _atom_site_fract_y
 _atom_site_fract_z
 _atom_site_occupancy
  H  H0  1  0.19580387  0.08580602  0.70212320  1
  H  H1  1  0.12095269  0.18825836  0.62493518  1
  H  H2  1  0.17459906  0.07439417  0.53739276  1
  H  H3  1  0.36601931  0.14003921  0.61163428  1
  H  H4  1  0.37986319  0.32475583  0.72184251  1
  H  H5  1  0.24556504  0.32693752  0.73105906  1
  H  H6  1  0.31697169  0.23166150  0.80285651  1
  H  H7  1  0.28134176  0.11623993  0.35648248  1
  H  H8  1  0.29206304  0.23125473  0.19162528  1
  H  H9  1  0.30705146  0.42533283  0.22118040  1
  H  H10  1  0.09003278  0.79939319  0.71633152  1
  H  H11  1  0.19259770  0.87387843  0.64890350  1
  H  H12  1  0.07876785  0.82045728  0.55561452  1
  H  H13  1  0.14173530  0.62697833  0.59299149  1
  H  H14  1  0.31878547  0.60567490  0.70584943  1
  H  H15  1  0.33075025  0.73942189  0.73422683  1
  H  H16  1  0.22999933  0.67466220  0.79527583  1
  H  H17  1  0.12615744  0.73679942  0.35663786  1
  H  H18  1  0.24578626  0.72732426  0.19297925  1
  H  H19  1  0.43608700  0.70826711  0.22491570  1
  H  H20  1  0.91023284  0.30620796  0.29254393  1
  H  H21  1  0.81363320  0.38588990  0.37641019  1
  H  H22  1  0.92536453  0.32491342  0.45700303  1
  H  H23  1  0.85097031  0.13670065  0.37947147  1
  H  H24  1  0.66294954  0.13381733  0.27688747  1
  H  H25  1  0.66904325  0.26886400  0.27153064  1
  H  H26  1  0.75796445  0.19163184  0.19402320  1
  H  H27  1  0.88147295  0.22983992  0.63841944  1
  H  H28  1  0.76933781  0.22004296  0.80689794  1
  H  H29  1  0.57734631  0.20619916  0.78229813  1
  H  H30  1  0.69667648  0.90869201  0.28914617  1
  H  H31  1  0.62289232  0.81233355  0.36754101  1
  H  H32  1  0.68472273  0.92716875  0.45220851  1
  H  H33  1  0.87007400  0.85564753  0.40421482  1
  H  H34  1  0.88407641  0.67835580  0.28648979  1
  H  H35  1  0.75011991  0.66690544  0.26899633  1
  H  H36  1  0.81049150  0.76871060  0.20331933  1
  H  H37  1  0.77379171  0.87443834  0.64694719  1
  H  H38  1  0.77361512  0.75403185  0.80840522  1
  H  H39  1  0.78560253  0.56046495  0.77452189  1
  Pb  Pb40  1  0.99717811  -0.00129109  0.00566506  1
  Pb  Pb41  1  0.02062935  0.48362777  0.99633820  1
  Pb  Pb42  1  0.48914592  0.98931547  0.98907996  1
  Pb  Pb43  1  0.52965113  0.49987761  0.00561927  1
  C  C44  1  0.19041764  0.13206405  0.61894177  1
  C  C45  1  0.29537233  0.19577353  0.61036824  1
  C  C46  1  0.29482831  0.25866266  0.49598925  1
  C  C47  1  0.29053470  0.20419323  0.37732249  1
  C  C48  1  0.30231247  0.37811443  0.30216888  1
  C  C49  1  0.13614398  0.80398426  0.63368687  1
  C  C50  1  0.19783985  0.69768911  0.60620753  1
  C  C51  1  0.26249196  0.70440244  0.49386637  1
  C  C52  1  0.21142177  0.71868772  0.37624515  1
  C  C53  1  0.38696258  0.71066870  0.30506344  1
  C  C54  1  0.86596391  0.31304834  0.37728737  1
  C  C55  1  0.79831120  0.21001469  0.38547458  1
  C  C56  1  0.73862059  0.21264441  0.50255974  1
  C  C57  1  0.79425713  0.21879524  0.61977268  1
  C  C58  1  0.62296402  0.20989010  0.69978507  1
  C  C59  1  0.69470276  0.86606892  0.37454414  1
  C  C60  1  0.79863394  0.80049952  0.39490532  1
  C  C61  1  0.79380943  0.73517694  0.50671692  1
  C  C62  1  0.78125064  0.78657879  0.62485779  1
  C  C63  1  0.78549252  0.60999459  0.69494551  1
  I  I64  1  0.24545865  0.09653353  0.98831124  1
  I  I65  1  0.27276252  0.44925304  0.98306349  1
  I  I66  1  0.75315692  0.90203642  0.01052740  1
  I  I67  1  0.77637554  0.56118079  0.01539143  1
  I  I68  1  0.89255946  0.23657850  0.01202067  1
  I  I69  1  0.08351039  0.73648946  0.98803831  1
  I  I70  1  0.54813521  0.24510620  0.01576808  1
  I  I71  1  0.42747297  0.74426604  0.98612393  1
  I  I72  1  0.94346980  0.00860519  0.70575591  1
  I  I73  1  0.03202933  0.99046435  0.30057897  1
  I  I74  1  0.02895244  0.43827464  0.70393875  1
  I  I75  1  0.03392739  0.53116025  0.30035200  1
  I  I76  1  0.49225883  0.95325261  0.69507062  1
  I  I77  1  0.47598972  0.01800011  0.28525859  1
  I  I78  1  0.51134125  0.48535434  0.70870337  1
  I  I79  1  0.57192612  0.48353998  0.30098594  1
  N  N80  1  0.31132326  0.27422148  0.72330197  1
  N  N81  1  0.29453934  0.26796741  0.28181072  1
  N  N82  1  0.29795808  0.42900893  0.41427957  1
  N  N83  1  0.29388379  0.36864010  0.51163717  1
  N  N84  1  0.27347126  0.67738766  0.71658702  1
  N  N85  1  0.27811018  0.71946857  0.28274594  1
  N  N86  1  0.43410668  0.70952895  0.41816702  1
  N  N87  1  0.37066491  0.70577153  0.51334357  1
  N  N88  1  0.71728230  0.19900446  0.27534095  1
  N  N89  1  0.73201027  0.21763440  0.71726814  1
  N  N90  1  0.57096318  0.21063621  0.58839941  1
  N  N91  1  0.62937926  0.21244968  0.48950201  1
  N  N92  1  0.81220708  0.72446413  0.28188984  1
  N  N93  1  0.78013678  0.72010017  0.71810301  1
  N  N94  1  0.78903966  0.56226495  0.58143293  1
  N  N95  1  0.79422928  0.62560517  0.48675689  1
