# generated using pymatgen
data_H7PbC2I4N5
_symmetry_space_group_name_H-M   'P 1'
_cell_length_a   11.95406854
_cell_length_b   11.98081994
_cell_length_c   10.41606337
_cell_angle_alpha   93.84302505
_cell_angle_beta   93.62237433
_cell_angle_gamma   89.26438780
_symmetry_Int_Tables_number   1
_chemical_formula_structural   H7PbC2I4N5
_chemical_formula_sum   'H28 Pb4 C8 I16 N20'
_cell_volume   1485.40029914
_cell_formula_units_Z   4
loop_
 _symmetry_equiv_pos_site_id
 _symmetry_equiv_pos_as_xyz
  1  'x, y, z'
loop_
 _atom_site_type_symbol
 _atom_site_label
 _atom_site_symmetry_multiplicity
 _atom_site_fract_x
 _atom_site_fract_y
 _atom_site_fract_z
 _atom_site_occupancy
  H  H0  1  0.25643447  0.18673428  0.79406298  1
  H  H1  1  0.18308764  0.28901715  0.72055294  1
  H  H2  1  0.32280854  0.28977160  0.72548269  1
  H  H3  1  0.32460952  0.10843343  0.59397390  1
  H  H4  1  0.17452252  0.11421130  0.58460030  1
  H  H5  1  0.26199016  0.31507451  0.19592910  1
  H  H6  1  0.27021942  0.13309264  0.30512004  1
  H  H7  1  0.19242814  0.73601719  0.79387598  1
  H  H8  1  0.29496901  0.80096353  0.72325998  1
  H  H9  1  0.29374305  0.66089016  0.71675152  1
  H  H10  1  0.11758086  0.65498741  0.58286097  1
  H  H11  1  0.11141145  0.80456953  0.59698253  1
  H  H12  1  0.31326056  0.74585661  0.19378590  1
  H  H13  1  0.13196364  0.71053919  0.30799753  1
  H  H14  1  0.80765059  0.26395863  0.20614418  1
  H  H15  1  0.70636628  0.33907911  0.28332578  1
  H  H16  1  0.70507464  0.19901037  0.27673060  1
  H  H17  1  0.88858531  0.19525376  0.40303594  1
  H  H18  1  0.88257240  0.34484103  0.41714794  1
  H  H19  1  0.68682964  0.25428373  0.80624056  1
  H  H20  1  0.86805342  0.28988501  0.69199115  1
  H  H21  1  0.74366178  0.81323610  0.20602574  1
  H  H22  1  0.67747467  0.71015166  0.27468606  1
  H  H23  1  0.81718816  0.71107621  0.27956595  1
  H  H24  1  0.82559887  0.88587394  0.41550729  1
  H  H25  1  0.67551107  0.89156835  0.40608276  1
  H  H26  1  0.73761967  0.68491841  0.80406491  1
  H  H27  1  0.72962595  0.86690314  0.69497164  1
  Pb  Pb28  1  -0.00052516  0.00024959  -0.00037920  1
  Pb  Pb29  1  -0.00007996  0.50058118  -0.00017495  1
  Pb  Pb30  1  0.49962957  -0.00011253  0.99983112  1
  Pb  Pb31  1  0.49985145  0.49966288  1.00041023  1
  C  C32  1  0.25108044  0.16566279  0.59122889  1
  C  C33  1  0.25214079  0.23927773  0.48214377  1
  C  C34  1  0.16878239  0.73135201  0.59151616  1
  C  C35  1  0.24152996  0.73619034  0.48121940  1
  C  C36  1  0.83129523  0.26853368  0.40849684  1
  C  C37  1  0.75853843  0.26375733  0.51879677  1
  C  C38  1  0.74906471  0.83438274  0.40886783  1
  C  C39  1  0.74799467  0.76077291  0.51795329  1
  I  I40  1  0.24912822  0.08865081  0.01099292  1
  I  I41  1  0.25126417  0.41830222  0.01664983  1
  I  I42  1  0.75029420  0.91099804  0.98859679  1
  I  I43  1  0.74822643  0.58149804  0.98341180  1
  I  I44  1  0.91491838  0.25264263  1.00879320  1
  I  I45  1  0.08542685  0.74826795  -0.00869588  1
  I  I46  1  0.58268342  0.24799080  0.98847344  1
  I  I47  1  0.41750034  0.75163103  0.01161228  1
  I  I48  1  0.97641509  0.99792884  0.68854390  1
  I  I49  1  0.02301488  0.00204747  0.31041770  1
  I  I50  1  0.01880166  0.43553466  0.69349439  1
  I  I51  1  0.98137603  0.56452265  0.30626243  1
  I  I52  1  0.47902626  0.96253752  0.69433872  1
  I  I53  1  0.52083204  0.03742237  0.30522005  1
  I  I54  1  0.43947507  0.49977667  0.69868150  1
  I  I55  1  0.56069002  0.49998391  0.30206044  1
  N  N56  1  0.25396749  0.23664062  0.71506738  1
  N  N57  1  0.24425585  0.35146287  0.49557695  1
  N  N58  1  0.24902541  0.39038475  0.37983688  1
  N  N59  1  0.25944756  0.30487435  0.29712306  1
  N  N60  1  0.26152601  0.20900486  0.35653633  1
  N  N61  1  0.24159299  0.73259858  0.71333625  1
  N  N62  1  0.35340102  0.74788255  0.49469130  1
  N  N63  1  0.39060938  0.75249461  0.37783059  1
  N  N64  1  0.30407760  0.74369367  0.29484249  1
  N  N65  1  0.20914341  0.73412028  0.35523199  1
  N  N66  1  0.75848896  0.26734229  0.28668065  1
  N  N67  1  0.64669722  0.25179498  0.50531322  1
  N  N68  1  0.60948926  0.24727598  0.62218615  1
  N  N69  1  0.69599371  0.25640649  0.70517660  1
  N  N70  1  0.79089982  0.26609793  0.64479159  1
  N  N71  1  0.74624105  0.76336628  0.28505026  1
  N  N72  1  0.75602123  0.64859193  0.50452860  1
  N  N73  1  0.75107389  0.60963759  0.62022373  1
  N  N74  1  0.74041830  0.69512431  0.70290880  1
  N  N75  1  0.73835822  0.79101503  0.64354659  1
