# generated using pymatgen
data_H21PbC16I4N3
_symmetry_space_group_name_H-M   'P 1'
_cell_length_a   12.38297513
_cell_length_b   12.38310312
_cell_length_c   19.18692839
_cell_angle_alpha   89.99985782
_cell_angle_beta   90.00016249
_cell_angle_gamma   90.00048802
_symmetry_Int_Tables_number   1
_chemical_formula_structural   H21PbC16I4N3
_chemical_formula_sum   'H84 Pb4 C64 I16 N12'
_cell_volume   2942.11703715
_cell_formula_units_Z   4
loop_
 _symmetry_equiv_pos_site_id
 _symmetry_equiv_pos_as_xyz
  1  'x, y, z'
loop_
 _atom_site_type_symbol
 _atom_site_label
 _atom_site_symmetry_multiplicity
 _atom_site_fract_x
 _atom_site_fract_y
 _atom_site_fract_z
 _atom_site_occupancy
  H  H0  1  0.30482293  0.25305369  0.89093795  1
  H  H1  1  0.27406044  0.38053909  0.87565947  1
  H  H2  1  0.17762590  0.29379207  0.90147867  1
  H  H3  1  0.16051409  0.33377931  0.77784452  1
  H  H4  1  0.18822484  0.19469193  0.79383988  1
  H  H5  1  0.38664976  0.22971229  0.77284346  1
  H  H6  1  0.35846077  0.36785501  0.75680758  1
  H  H7  1  0.31283370  0.08802594  0.69446367  1
  H  H8  1  0.27401581  0.03694014  0.57149990  1
  H  H9  1  0.29323951  0.42722224  0.64307925  1
  H  H10  1  0.24662165  0.45956318  0.50040106  1
  H  H11  1  0.20490476  0.42578684  0.35673864  1
  H  H12  1  0.11029527  0.22759799  0.22842186  1
  H  H13  1  0.13779406  0.36576503  0.24429936  1
  H  H14  1  0.33548288  0.33296560  0.22100154  1
  H  H15  1  0.30739759  0.19407795  0.20412533  1
  H  H16  1  0.31373301  0.29730353  0.09768474  1
  H  H17  1  0.21611459  0.38100337  0.12575825  1
  H  H18  1  0.18762440  0.25379680  0.10866225  1
  H  H19  1  0.18583970  0.08636032  0.30656199  1
  H  H20  1  0.22701864  0.03612610  0.42910663  1
  H  H21  1  0.25305048  0.69517566  0.89093643  1
  H  H22  1  0.38054027  0.72593737  0.87566098  1
  H  H23  1  0.29379120  0.82236856  0.90147874  1
  H  H24  1  0.33378360  0.83947970  0.77784499  1
  H  H25  1  0.19469217  0.81176834  0.79383795  1
  H  H26  1  0.22971424  0.61334786  0.77284373  1
  H  H27  1  0.36786179  0.64153991  0.75680848  1
  H  H28  1  0.08802304  0.68716180  0.69446491  1
  H  H29  1  0.03693450  0.72598050  0.57150016  1
  H  H30  1  0.42723158  0.70675821  0.64307931  1
  H  H31  1  0.45955986  0.75337524  0.50040165  1
  H  H32  1  0.42579783  0.79509313  0.35673909  1
  H  H33  1  0.22760273  0.88969987  0.22842140  1
  H  H34  1  0.36577328  0.86220062  0.24429910  1
  H  H35  1  0.33296886  0.66451816  0.22100166  1
  H  H36  1  0.19407764  0.69260159  0.20412627  1
  H  H37  1  0.29730506  0.68626460  0.09768553  1
  H  H38  1  0.38100775  0.78388331  0.12575774  1
  H  H39  1  0.25379786  0.81236917  0.10866196  1
  H  H40  1  0.08635946  0.81415826  0.30656078  1
  H  H41  1  0.03612118  0.77297846  0.42910537  1
  H  H42  1  0.74620783  0.18762600  0.10866281  1
  H  H43  1  0.61899510  0.21610128  0.12575702  1
  H  H44  1  0.70269094  0.31372696  0.09768566  1
  H  H45  1  0.66702390  0.33546993  0.22100162  1
  H  H46  1  0.80591717  0.30739649  0.20412720  1
  H  H47  1  0.77240464  0.11029453  0.22842048  1
  H  H48  1  0.63423268  0.13778542  0.24429852  1
  H  H49  1  0.91364417  0.18583559  0.30656079  1
  H  H50  1  0.96388160  0.22701627  0.42910551  1
  H  H51  1  0.57420539  0.20489747  0.35673778  1
  H  H52  1  0.54044098  0.24661706  0.50040012  1
  H  H53  1  0.57276910  0.29323319  0.64307757  1
  H  H54  1  0.77027966  0.38664792  0.77284372  1
  H  H55  1  0.63213429  0.35844698  0.75680786  1
  H  H56  1  0.66622582  0.16050886  0.77784395  1
  H  H57  1  0.80531520  0.18823045  0.79383856  1
  H  H58  1  0.70621455  0.17762147  0.90147763  1
  H  H59  1  0.61945838  0.27404474  0.87566019  1
  H  H60  1  0.74694496  0.30481821  0.89093732  1
  H  H61  1  0.91197647  0.31283349  0.69446575  1
  H  H62  1  0.96306702  0.27401473  0.57150157  1
  H  H63  1  0.81237435  0.74620388  0.10866405  1
  H  H64  1  0.78389746  0.61899797  0.12576061  1
  H  H65  1  0.68627000  0.70268806  0.09768567  1
  H  H66  1  0.66452614  0.66702441  0.22100268  1
  H  H67  1  0.69259705  0.80591479  0.20412577  1
  H  H68  1  0.88970689  0.77240991  0.22842054  1
  H  H69  1  0.86221260  0.63424315  0.24430425  1
  H  H70  1  0.81416251  0.91365320  0.30655421  1
  H  H71  1  0.77298265  0.96390707  0.42909835  1
  H  H72  1  0.79509345  0.57422782  0.35674670  1
  H  H73  1  0.75337729  0.54043969  0.50040007  1
  H  H74  1  0.70676493  0.57278870  0.64307080  1
  H  H75  1  0.61334804  0.77028100  0.77284574  1
  H  H76  1  0.64154767  0.63214189  0.75680392  1
  H  H77  1  0.83949133  0.66622598  0.77784214  1
  H  H78  1  0.81177439  0.80531218  0.79383971  1
  H  H79  1  0.82237910  0.70620863  0.90147626  1
  H  H80  1  0.72595259  0.61945831  0.87565705  1
  H  H81  1  0.69518041  0.74693860  0.89093698  1
  H  H82  1  0.68716536  0.91198300  0.69447205  1
  H  H83  1  0.72598166  0.96309250  0.57150916  1
  Pb  Pb84  1  0.99997087  0.99992276  0.99598934  1
  Pb  Pb85  1  0.00000471  0.49996181  0.99515066  1
  Pb  Pb86  1  0.49999646  -0.00000303  0.99514047  1
  Pb  Pb87  1  0.50000992  0.49999669  0.00962834  1
  C  C88  1  0.22271693  0.27638258  0.79485881  1
  C  C89  1  0.32569757  0.28573857  0.75153527  1
  C  C90  1  0.30513255  0.25978744  0.67588981  1
  C  C91  1  0.29965105  0.15049218  0.65524711  1
  C  C92  1  0.27860251  0.12174768  0.58652033  1
  C  C93  1  0.26298929  0.20329516  0.53692727  1
  C  C94  1  0.26874047  0.31352741  0.55799180  1
  C  C95  1  0.28951271  0.34260336  0.62718182  1
  C  C96  1  0.23295412  0.31298965  0.44188738  1
  C  C97  1  0.21077721  0.34140572  0.37280057  1
  C  C98  1  0.19471753  0.25827057  0.32440183  1
  C  C99  1  0.17137722  0.28394142  0.24911676  1
  C  C100  1  0.27285588  0.27575670  0.20432304  1
  C  C101  1  0.20096866  0.14913801  0.34528601  1
  C  C102  1  0.22349065  0.12090663  0.41391146  1
  C  C103  1  0.24000143  0.20293992  0.46309335  1
  C  C104  1  0.27638511  0.77727869  0.79485849  1
  C  C105  1  0.28574171  0.67430110  0.75153437  1
  C  C106  1  0.25979527  0.69486447  0.67588866  1
  C  C107  1  0.15049135  0.70034516  0.65524664  1
  C  C108  1  0.12174096  0.72139349  0.58652090  1
  C  C109  1  0.20329395  0.73700732  0.53692654  1
  C  C110  1  0.31352254  0.73125638  0.55799012  1
  C  C111  1  0.34260250  0.71048211  0.62718579  1
  C  C112  1  0.31298612  0.76704297  0.44188923  1
  C  C113  1  0.34140537  0.78922180  0.37279897  1
  C  C114  1  0.25827982  0.80528003  0.32440296  1
  C  C115  1  0.28394622  0.82861865  0.24911726  1
  C  C116  1  0.27575928  0.72714247  0.20432347  1
  C  C117  1  0.14913724  0.79902857  0.34528740  1
  C  C118  1  0.12090094  0.77650734  0.41391032  1
  C  C119  1  0.20293788  0.75999585  0.46309391  1
  C  C120  1  0.72423836  0.27284978  0.20432397  1
  C  C121  1  0.71605754  0.17137267  0.24911692  1
  C  C122  1  0.74172497  0.19471154  0.32440235  1
  C  C123  1  0.85086486  0.20096443  0.34528703  1
  C  C124  1  0.87910217  0.22348569  0.41391031  1
  C  C125  1  0.79706419  0.23999637  0.46309400  1
  C  C126  1  0.68701666  0.23294862  0.44188963  1
  C  C127  1  0.65859808  0.21076948  0.37279816  1
  C  C128  1  0.68647944  0.26873458  0.55798826  1
  C  C129  1  0.65739801  0.28950912  0.62718567  1
  C  C130  1  0.74020524  0.30512803  0.67588823  1
  C  C131  1  0.71425602  0.32569081  0.75153363  1
  C  C132  1  0.72361984  0.22271388  0.79485803  1
  C  C133  1  0.84950754  0.29964940  0.65524739  1
  C  C134  1  0.87825977  0.27860033  0.58652127  1
  C  C135  1  0.79670774  0.26298463  0.53692658  1
  C  C136  1  0.72714581  0.72423988  0.20432458  1
  C  C137  1  0.82862525  0.71606600  0.24912045  1
  C  C138  1  0.80528384  0.74174771  0.32439988  1
  C  C139  1  0.79903361  0.85087245  0.34527909  1
  C  C140  1  0.77650983  0.87911894  0.41390739  1
  C  C141  1  0.75999599  0.79708148  0.46309611  1
  C  C142  1  0.76703951  0.68703494  0.44190088  1
  C  C143  1  0.78922344  0.65861961  0.37279757  1
  C  C144  1  0.73126187  0.68649545  0.55797588  1
  C  C145  1  0.71048557  0.65741643  0.62718518  1
  C  C146  1  0.69486811  0.74022914  0.67589125  1
  C  C147  1  0.67430656  0.71426258  0.75153186  1
  C  C148  1  0.77728598  0.72362079  0.79485678  1
  C  C149  1  0.70034735  0.84951396  0.65525478  1
  C  C150  1  0.72139653  0.87827850  0.58652518  1
  C  C151  1  0.73700963  0.79672309  0.53692414  1
  I  I152  1  0.25037995  0.94586686  0.99983064  1
  I  I153  1  0.25043380  0.55231594  0.00025333  1
  I  I154  1  0.74961407  0.05411647  0.99983624  1
  I  I155  1  0.74957217  0.44767423  0.00024981  1
  I  I156  1  0.05411875  0.25036894  0.99983538  1
  I  I157  1  0.94588325  0.74960018  0.99983766  1
  I  I158  1  0.44768276  0.25042932  0.00025216  1
  I  I159  1  0.55232278  0.74956999  0.00024880  1
  I  I160  1  0.99999865  0.99999767  0.83241796  1
  I  I161  1  0.99999980  0.99999723  0.16741324  1
  I  I162  1  1.00000048  0.49999764  0.82846058  1
  I  I163  1  0.99996525  0.50000182  0.15976172  1
  I  I164  1  0.50000219  -0.00000162  0.82845845  1
  I  I165  1  0.49999940  -0.00000065  0.15975091  1
  I  I166  1  0.50000087  0.50000010  0.84546480  1
  I  I167  1  0.49999997  0.49999973  0.17456946  1
  N  N168  1  0.24597143  0.30256524  0.86980238  1
  N  N169  1  0.25096525  0.37789783  0.49983905  1
  N  N170  1  0.24653842  0.30353121  0.13003407  1
  N  N171  1  0.30256603  0.75402601  0.86980292  1
  N  N172  1  0.37789827  0.74903121  0.49983906  1
  N  N173  1  0.30353402  0.75345904  0.13003379  1
  N  N174  1  0.69646638  0.24653211  0.13003361  1
  N  N175  1  0.62210561  0.25095960  0.49983794  1
  N  N176  1  0.69743535  0.24596424  0.86980282  1
  N  N177  1  0.75346583  0.69646557  0.13003412  1
  N  N178  1  0.74902878  0.62219399  0.49983800  1
  N  N179  1  0.75403551  0.69743298  0.86980162  1
