# generated using pymatgen
data_H17PbC14I4N3
_symmetry_space_group_name_H-M   'P 1'
_cell_length_a   13.17000590
_cell_length_b   13.26473308
_cell_length_c   15.88667152
_cell_angle_alpha   89.98621729
_cell_angle_beta   90.05610208
_cell_angle_gamma   90.59238730
_symmetry_Int_Tables_number   1
_chemical_formula_structural   H17PbC14I4N3
_chemical_formula_sum   'H68 Pb4 C56 I16 N12'
_cell_volume   2775.19796624
_cell_formula_units_Z   4
loop_
 _symmetry_equiv_pos_site_id
 _symmetry_equiv_pos_as_xyz
  1  'x, y, z'
loop_
 _atom_site_type_symbol
 _atom_site_label
 _atom_site_symmetry_multiplicity
 _atom_site_fract_x
 _atom_site_fract_y
 _atom_site_fract_z
 _atom_site_occupancy
  H  H0  1  0.34198192  0.08379035  0.79797200  1
  H  H1  1  0.24883247  0.06627918  0.86920295  1
  H  H2  1  0.29283495  0.18107628  0.85002940  1
  H  H3  1  0.12271098  0.13314884  0.78719200  1
  H  H4  1  0.18807785  0.04440186  0.72507994  1
  H  H5  1  0.18644083  0.32131752  0.77714479  1
  H  H6  1  0.21170930  0.45745748  0.67362718  1
  H  H7  1  0.25577597  0.48939451  0.50241629  1
  H  H8  1  0.30406000  0.46156377  0.33065494  1
  H  H9  1  0.32726497  0.32775455  0.22547683  1
  H  H10  1  0.38358781  0.14113083  0.21253777  1
  H  H11  1  0.31858820  0.04974355  0.27324585  1
  H  H12  1  0.22147933  0.18415095  0.14593372  1
  H  H13  1  0.16331764  0.09315864  0.20185063  1
  H  H14  1  0.25451298  0.06490683  0.13205126  1
  H  H15  1  0.26411001  0.09579096  0.41039679  1
  H  H16  1  0.23668512  0.09339298  0.58736480  1
  H  H17  1  0.08493524  0.65620406  0.80076688  1
  H  H18  1  0.06719553  0.74961923  0.87082817  1
  H  H19  1  0.18341243  0.70892316  0.85174213  1
  H  H20  1  0.13422252  0.87473878  0.78693828  1
  H  H21  1  0.04375627  0.80716381  0.72648051  1
  H  H22  1  0.32272821  0.81246633  0.77712968  1
  H  H23  1  0.45923949  0.78825208  0.67344198  1
  H  H24  1  0.49042398  0.74405229  0.50249818  1
  H  H25  1  0.46142537  0.69513332  0.33094380  1
  H  H26  1  0.32622705  0.67237108  0.22544151  1
  H  H27  1  0.13625510  0.61976105  0.21107343  1
  H  H28  1  0.04616006  0.68536543  0.27186078  1
  H  H29  1  0.18695196  0.77988102  0.14648069  1
  H  H30  1  0.09659749  0.83956839  0.20162328  1
  H  H31  1  0.06540816  0.75054954  0.13082630  1
  H  H32  1  0.09405543  0.73708238  0.40989182  1
  H  H33  1  0.09198983  0.76200311  0.58756818  1
  H  H34  1  0.90433456  0.16755278  0.20279091  1
  H  H35  1  0.93662117  0.25904090  0.13420551  1
  H  H36  1  0.81534127  0.22587871  0.14563330  1
  H  H37  1  0.85964344  0.38606461  0.21375864  1
  H  H38  1  0.95033012  0.32148952  0.27472260  1
  H  H39  1  0.67022068  0.32735460  0.22705775  1
  H  H40  1  0.53607137  0.30286846  0.33310011  1
  H  H41  1  0.50899694  0.25504959  0.50478482  1
  H  H42  1  0.54171782  0.21177982  0.67579325  1
  H  H43  1  0.67871016  0.18661959  0.77874519  1
  H  H44  1  0.86823570  0.12267743  0.78751958  1
  H  H45  1  0.95776477  0.19034795  0.72625719  1
  H  H46  1  0.82020088  0.28845147  0.85214092  1
  H  H47  1  0.91807087  0.34149261  0.80095067  1
  H  H48  1  0.93654822  0.24870971  0.87133965  1
  H  H49  1  0.90814729  0.23659649  0.58798980  1
  H  H50  1  0.90459626  0.26529734  0.41056304  1
  H  H51  1  0.83757074  0.90228524  0.20126950  1
  H  H52  1  0.74559447  0.93423480  0.13325552  1
  H  H53  1  0.77534957  0.81341810  0.14513731  1
  H  H54  1  0.61696039  0.85787658  0.21436296  1
  H  H55  1  0.68436843  0.94842456  0.27432839  1
  H  H56  1  0.67326400  0.67046857  0.22668036  1
  H  H57  1  0.69609716  0.53684658  0.33243624  1
  H  H58  1  0.74481728  0.50975787  0.50409558  1
  H  H59  1  0.78913780  0.54238388  0.67519990  1
  H  H60  1  0.81213022  0.67885422  0.77877651  1
  H  H61  1  0.87402674  0.86758317  0.78820407  1
  H  H62  1  0.80666976  0.95575057  0.72702931  1
  H  H63  1  0.70677077  0.81755753  0.85279844  1
  H  H64  1  0.65441842  0.91506429  0.80178147  1
  H  H65  1  0.74868012  0.93344967  0.87181961  1
  H  H66  1  0.76102363  0.90609823  0.58858358  1
  H  H67  1  0.73690889  0.90295192  0.41097405  1
  Pb  Pb68  1  0.99604809  0.01220892  0.04144862  1
  Pb  Pb69  1  0.97156153  0.52581423  0.97404785  1
  Pb  Pb70  1  0.46650794  0.99214017  0.97207690  1
  Pb  Pb71  1  0.47677599  0.54999279  0.97983689  1
  C  C72  1  0.19379495  0.11969700  0.75344230  1
  C  C73  1  0.21328038  0.19940000  0.68876501  1
  C  C74  1  0.20523761  0.30169948  0.71223359  1
  C  C75  1  0.21873913  0.37908974  0.65435431  1
  C  C76  1  0.23840644  0.35204638  0.57108288  1
  C  C77  1  0.26975094  0.35397820  0.43103768  1
  C  C78  1  0.29242882  0.38286764  0.34843089  1
  C  C79  1  0.30426781  0.30671881  0.28927019  1
  C  C80  1  0.29195214  0.20388853  0.31088335  1
  C  C81  1  0.31237032  0.12535797  0.24586965  1
  C  C82  1  0.27125754  0.17552759  0.39387671  1
  C  C83  1  0.26153123  0.25048584  0.45526706  1
  C  C84  1  0.24328407  0.24926884  0.54501048  1
  C  C85  1  0.23180078  0.17278163  0.60512180  1
  C  C86  1  0.12001602  0.80330229  0.75414697  1
  C  C87  1  0.19943651  0.78465950  0.68900597  1
  C  C88  1  0.30263641  0.79331576  0.71228457  1
  C  C89  1  0.38018233  0.78048589  0.65432623  1
  C  C90  1  0.35241772  0.76107340  0.57105907  1
  C  C91  1  0.35378743  0.73013409  0.43100360  1
  C  C92  1  0.38242012  0.70723536  0.34846224  1
  C  C93  1  0.30552244  0.69567199  0.28913273  1
  C  C94  1  0.20220605  0.70876013  0.31047607  1
  C  C95  1  0.12268976  0.69042769  0.24490280  1
  C  C96  1  0.17414963  0.72935947  0.39348690  1
  C  C97  1  0.24971979  0.73846438  0.45511265  1
  C  C98  1  0.24880362  0.75626577  0.54496325  1
  C  C99  1  0.17208008  0.76693312  0.60524988  1
  C  C100  1  0.87431303  0.31525045  0.24697307  1
  C  C101  1  0.79512527  0.29332476  0.31188162  1
  C  C102  1  0.69159147  0.30457197  0.29075863  1
  C  C103  1  0.61534996  0.29188966  0.35035487  1
  C  C104  1  0.64498612  0.26929023  0.43276070  1
  C  C105  1  0.64761870  0.23815899  0.57278876  1
  C  C106  1  0.62062207  0.21886834  0.65621550  1
  C  C107  1  0.69864916  0.20551722  0.71382731  1
  C  C108  1  0.80172168  0.21349941  0.69004953  1
  C  C109  1  0.88198502  0.19421007  0.75468804  1
  C  C110  1  0.82824694  0.23173950  0.60615961  1
  C  C111  1  0.75100758  0.24301798  0.54624756  1
  C  C112  1  0.74927705  0.26134590  0.45643636  1
  C  C113  1  0.82422907  0.27203006  0.39458289  1
  C  C114  1  0.68896274  0.87276554  0.24688470  1
  C  C115  1  0.70945811  0.79430486  0.31181880  1
  C  C116  1  0.69671589  0.69149291  0.29042277  1
  C  C117  1  0.70829866  0.61559017  0.34986849  1
  C  C118  1  0.73102472  0.64490178  0.43240748  1
  C  C119  1  0.76160330  0.64739013  0.57256159  1
  C  C120  1  0.78108341  0.62064540  0.65593581  1
  C  C121  1  0.79316320  0.69822194  0.71382301  1
  C  C122  1  0.78367781  0.80045947  0.69044950  1
  C  C123  1  0.80217757  0.88030693  0.75526565  1
  C  C124  1  0.76627796  0.82677928  0.60650934  1
  C  C125  1  0.75641842  0.75007909  0.54633136  1
  C  C126  1  0.73903491  0.74847795  0.45643940  1
  C  C127  1  0.72978811  0.82312610  0.39475239  1
  I  I128  1  0.23999878  0.91943615  0.01126742  1
  I  I129  1  0.24219355  0.59627982  0.97842538  1
  I  I130  1  0.77069897  0.07567597  0.01790508  1
  I  I131  1  0.77406771  0.40724261  0.98938294  1
  I  I132  1  0.08161677  0.22562500  0.01336817  1
  I  I133  1  0.92305299  0.75712219  0.01595036  1
  I  I134  1  0.42171515  0.21965831  0.97388483  1
  I  I135  1  0.59607723  0.76231690  0.98991304  1
  I  I136  1  0.00060289  0.99430712  0.85818650  1
  I  I137  1  0.99996159  0.00076175  0.26337985  1
  I  I138  1  -0.00011111  0.49871826  0.76227338  1
  I  I139  1  0.04002475  0.46995441  0.14735737  1
  I  I140  1  0.50031074  0.99868604  0.75883431  1
  I  I141  1  0.51294118  0.01150135  0.15401787  1
  I  I142  1  0.50418728  0.49864604  0.79252427  1
  I  I143  1  0.50180179  0.49628469  0.17652261  1
  N  N144  1  0.27346298  0.11310596  0.82093996  1
  N  N145  1  0.25457167  0.41300783  0.50158727  1
  N  N146  1  0.23295124  0.11712913  0.17761591  1
  N  N147  1  0.11431779  0.72536088  0.82283156  1
  N  N148  1  0.41352800  0.74517268  0.50158995  1
  N  N149  1  0.11845092  0.77027237  0.17723330  1
  N  N150  1  0.88230503  0.23677034  0.17853176  1
  N  N151  1  0.58586666  0.25404291  0.50360692  1
  N  N152  1  0.88886027  0.27231440  0.82337153  1
  N  N153  1  0.76702371  0.88019559  0.17773414  1
  N  N154  1  0.74608736  0.58614111  0.50312584  1
  N  N155  1  0.72369912  0.88605902  0.82397618  1
