# generated using pymatgen
data_H26PbC24S2(I2N)2
_symmetry_space_group_name_H-M   'P 1'
_cell_length_a   12.30057755
_cell_length_b   12.39833603
_cell_length_c   26.64699434
_cell_angle_alpha   92.11212717
_cell_angle_beta   91.75462029
_cell_angle_gamma   89.96470678
_symmetry_Int_Tables_number   1
_chemical_formula_structural   H26PbC24S2(I2N)2
_chemical_formula_sum   'H104 Pb4 C96 S8 I16 N8'
_cell_volume   4059.17941961
_cell_formula_units_Z   4
loop_
 _symmetry_equiv_pos_site_id
 _symmetry_equiv_pos_as_xyz
  1  'x, y, z'
loop_
 _atom_site_type_symbol
 _atom_site_label
 _atom_site_symmetry_multiplicity
 _atom_site_fract_x
 _atom_site_fract_y
 _atom_site_fract_z
 _atom_site_occupancy
  H  H0  1  0.31344485  0.33373194  0.90921972  1
  H  H1  1  0.18573664  0.30783108  0.92514581  1
  H  H2  1  0.28122663  0.21049331  0.93053292  1
  H  H3  1  0.16376936  0.17139448  0.85849909  1
  H  H4  1  0.18826748  0.30355786  0.83760125  1
  H  H5  1  0.38917501  0.25764728  0.83237207  1
  H  H6  1  0.36086466  0.12347977  0.84803973  1
  H  H7  1  0.29103623  0.98888779  0.77603685  1
  H  H8  1  0.24907795  0.98766135  0.67863525  1
  H  H9  1  0.33146721  0.34397224  0.63784175  1
  H  H10  1  0.31068727  0.38763211  0.54862936  1
  H  H11  1  0.27205598  0.11412505  0.44616367  1
  H  H12  1  0.26286924  0.15771132  0.35705993  1
  H  H13  1  0.13204882  0.51164636  0.31685285  1
  H  H14  1  0.11412093  0.49655739  0.21832747  1
  H  H15  1  0.11755834  0.34975403  0.14661780  1
  H  H16  1  0.13097592  0.21383575  0.16397217  1
  H  H17  1  0.32021953  0.36643612  0.14267131  1
  H  H18  1  0.33749777  0.23524791  0.16669293  1
  H  H19  1  0.23638588  0.29107390  0.06860698  1
  H  H20  1  0.23065517  0.16608604  0.09175381  1
  H  H21  1  0.35134499  0.22046570  0.08021490  1
  H  H22  1  0.13561628  0.47333494  0.39694820  1
  H  H23  1  0.14785142  0.42971883  0.48604231  1
  H  H24  1  0.13147701  0.09312389  0.51868549  1
  H  H25  1  0.14955563  0.05022143  0.60818033  1
  H  H26  1  0.32468688  0.67070126  0.90742500  1
  H  H27  1  0.30792553  0.80057521  0.92902757  1
  H  H28  1  0.20316629  0.71581716  0.92871419  1
  H  H29  1  0.17738772  0.83386694  0.86084300  1
  H  H30  1  0.31097097  0.80255578  0.84032289  1
  H  H31  1  0.25407767  0.60662160  0.82696210  1
  H  H32  1  0.12080722  0.64030212  0.84435978  1
  H  H33  1  0.98798041  0.71816055  0.77553092  1
  H  H34  1  0.98759553  0.75666936  0.67919934  1
  H  H35  1  0.34442116  0.66217663  0.63345798  1
  H  H36  1  0.38948780  0.68703052  0.54517624  1
  H  H37  1  0.11435563  0.72562492  0.44538413  1
  H  H38  1  0.15555239  0.74316391  0.35614321  1
  H  H39  1  0.51625296  0.85676963  0.32016289  1
  H  H40  1  0.50601218  0.87384367  0.22225578  1
  H  H41  1  0.35526690  0.88926988  0.14993872  1
  H  H42  1  0.21814884  0.88033584  0.16658187  1
  H  H43  1  0.36779385  0.68690878  0.14302987  1
  H  H44  1  0.23258343  0.67572354  0.16471601  1
  H  H45  1  0.30264651  0.77168177  0.07059916  1
  H  H46  1  0.17447494  0.78332620  0.09092008  1
  H  H47  1  0.22839094  0.66079159  0.07555722  1
  H  H48  1  0.46848148  0.87942355  0.39967023  1
  H  H49  1  0.42889565  0.85650108  0.48854803  1
  H  H50  1  0.09341266  0.86684713  0.52275688  1
  H  H51  1  0.05071060  0.84773870  0.61183486  1
  H  H52  1  0.66621832  0.18155993  0.08895288  1
  H  H53  1  0.68902953  0.30667744  0.07069369  1
  H  H54  1  0.79011633  0.21556626  0.06734388  1
  H  H55  1  0.82645727  0.33445948  0.13867774  1
  H  H56  1  0.69129730  0.31365761  0.15844067  1
  H  H57  1  0.73252048  0.11444537  0.16537869  1
  H  H58  1  0.87024441  0.13899720  0.15154611  1
  H  H59  1  0.00121918  0.19484591  0.22353270  1
  H  H60  1  0.00179733  0.23565209  0.32126353  1
  H  H61  1  0.64713560  0.16531797  0.36321458  1
  H  H62  1  0.60862144  0.18620445  0.45354549  1
  H  H63  1  0.88997090  0.22971950  0.55137064  1
  H  H64  1  0.84963152  0.23567227  0.64133595  1
  H  H65  1  0.48465263  0.31946548  0.68440554  1
  H  H66  1  0.49752757  0.34142163  0.78265006  1
  H  H67  1  0.65191262  0.38037190  0.85334572  1
  H  H68  1  0.78958311  0.36613606  0.83646005  1
  H  H69  1  0.63232172  0.18026597  0.85719183  1
  H  H70  1  0.76584968  0.16089918  0.83450957  1
  H  H71  1  0.70866244  0.26767201  0.93178404  1
  H  H72  1  0.83571297  0.25962004  0.90965266  1
  H  H73  1  0.76843324  0.14720767  0.92202419  1
  H  H74  1  0.52785021  0.35614429  0.60612794  1
  H  H75  1  0.56744837  0.34591379  0.51624416  1
  H  H76  1  0.90494082  0.36730891  0.47890115  1
  H  H77  1  0.94195036  0.34990899  0.38846148  1
  H  H78  1  0.82455185  0.67304170  0.09048918  1
  H  H79  1  0.69738509  0.70326156  0.06827199  1
  H  H80  1  0.79188466  0.79916413  0.07096339  1
  H  H81  1  0.66917712  0.82711418  0.13891873  1
  H  H82  1  0.69447153  0.69185685  0.15701525  1
  H  H83  1  0.89405417  0.73928996  0.17119230  1
  H  H84  1  0.86572711  0.87423203  0.15631279  1
  H  H85  1  0.78564425  0.00341186  0.22478121  1
  H  H86  1  0.74704432  0.00494617  0.32085011  1
  H  H87  1  0.83752281  0.65040659  0.36653000  1
  H  H88  1  0.81267145  0.60980067  0.45539914  1
  H  H89  1  0.77969474  0.89041099  0.55252302  1
  H  H90  1  0.76113690  0.85777105  0.64256665  1
  H  H91  1  0.62774491  0.50874013  0.68162305  1
  H  H92  1  0.61140449  0.52284297  0.77947100  1
  H  H93  1  0.61131545  0.66493681  0.85108907  1
  H  H94  1  0.62897006  0.80200992  0.83752689  1
  H  H95  1  0.81353110  0.63895113  0.85587222  1
  H  H96  1  0.83323085  0.77513978  0.83786293  1
  H  H97  1  0.73200698  0.70266205  0.93049331  1
  H  H98  1  0.73326986  0.83272245  0.91343826  1
  H  H99  1  0.85011333  0.76672245  0.92671534  1
  H  H100  1  0.62273618  0.54468095  0.60390586  1
  H  H101  1  0.64561015  0.57621064  0.51456844  1
  H  H102  1  0.63992741  0.90913928  0.47738708  1
  H  H103  1  0.65983450  0.94789874  0.38810217  1
  Pb  Pb104  1  0.01007977  0.00641767  0.99216700  1
  Pb  Pb105  1  0.98196289  0.49466055  0.99852359  1
  Pb  Pb106  1  0.50530830  0.00258042  0.00212710  1
  Pb  Pb107  1  0.49095128  0.50135484  0.00655223  1
  C  C108  1  0.22556499  0.23478613  0.85626624  1
  C  C109  1  0.32634633  0.19418446  0.82943275  1
  C  C110  1  0.29991161  0.16342335  0.77556068  1
  C  C111  1  0.28408817  0.06140850  0.75430617  1
  C  C112  1  0.26045281  0.06105657  0.70189425  1
  C  C113  1  0.25805701  0.16327606  0.68254606  1
  C  C114  1  0.24288047  0.19301692  0.63013163  1
  C  C115  1  0.28594582  0.28896323  0.61211413  1
  C  C116  1  0.27425046  0.31393419  0.56173999  1
  C  C117  1  0.22011053  0.24343832  0.52681713  1
  C  C118  1  0.21132523  0.26882541  0.47304132  1
  C  C119  1  0.24163853  0.19303454  0.43546997  1
  C  C120  1  0.23663870  0.21817465  0.38497751  1
  C  C121  1  0.19930793  0.31956320  0.36944899  1
  C  C122  1  0.18976590  0.34525283  0.31630596  1
  C  C123  1  0.15342275  0.43942926  0.29488563  1
  C  C124  1  0.14468773  0.43223678  0.24171424  1
  C  C125  1  0.17476731  0.33286444  0.22183478  1
  C  C126  1  0.16969970  0.29416080  0.16789217  1
  C  C127  1  0.28206047  0.28689618  0.14527746  1
  C  C128  1  0.16728976  0.39473744  0.40722006  1
  C  C129  1  0.17413293  0.37017765  0.45774492  1
  C  C130  1  0.17631070  0.14792779  0.54475580  1
  C  C131  1  0.18644284  0.12371603  0.59525730  1
  C  C132  1  0.23821042  0.76939939  0.85695658  1
  C  C133  1  0.19312523  0.67170881  0.82635648  1
  C  C134  1  0.16294511  0.69856597  0.77349107  1
  C  C135  1  0.06097497  0.72005421  0.75346477  1
  C  C136  1  0.06113053  0.74179803  0.70165590  1
  C  C137  1  0.16370382  0.73720716  0.68159636  1
  C  C138  1  0.19346283  0.75233797  0.62959684  1
  C  C139  1  0.28968416  0.70906512  0.60968821  1
  C  C140  1  0.31497038  0.72245312  0.55971504  1
  C  C141  1  0.24395980  0.77754577  0.52716233  1
  C  C142  1  0.26858398  0.78953277  0.47369226  1
  C  C143  1  0.19216728  0.75976929  0.43535647  1
  C  C144  1  0.21555208  0.77001052  0.38497745  1
  C  C145  1  0.31545806  0.81300835  0.37064932  1
  C  C146  1  0.34155561  0.82546687  0.31803052  1
  C  C147  1  0.44119286  0.84773932  0.29775289  1
  C  C148  1  0.43653552  0.85527891  0.24482372  1
  C  C149  1  0.33365480  0.83843489  0.22417052  1
  C  C150  1  0.29767526  0.84015878  0.17027076  1
  C  C151  1  0.28856012  0.72756642  0.14524779  1
  C  C152  1  0.39109033  0.84426223  0.40923978  1
  C  C153  1  0.36878400  0.83138066  0.45948759  1
  C  C154  1  0.14811966  0.82110612  0.54699548  1
  C  C155  1  0.12399641  0.81014540  0.59719996  1
  C  C156  1  0.76132516  0.27449750  0.14098089  1
  C  C157  1  0.79805171  0.17519611  0.16899951  1
  C  C158  1  0.82580924  0.20152922  0.22312151  1
  C  C159  1  0.92843650  0.20834845  0.24496681  1
  C  C160  1  0.92859857  0.23042640  0.29742162  1
  C  C161  1  0.82543337  0.23995690  0.31624476  1
  C  C162  1  0.79755960  0.25600853  0.36893079  1
  C  C163  1  0.70282731  0.21187518  0.38825392  1
  C  C164  1  0.68112221  0.22340302  0.43910863  1
  C  C165  1  0.75383678  0.27811242  0.47286941  1
  C  C166  1  0.73139439  0.28648717  0.52699360  1
  C  C167  1  0.81051583  0.25807593  0.56335683  1
  C  C168  1  0.78760094  0.26156274  0.61417897  1
  C  C169  1  0.68535698  0.29569936  0.63105577  1
  C  C170  1  0.66080344  0.30155267  0.68438730  1
  C  C171  1  0.56068018  0.31562288  0.70609465  1
  C  C172  1  0.56699646  0.32547094  0.75914806  1
  C  C173  1  0.67181262  0.31895979  0.77856900  1
  C  C174  1  0.70882772  0.32788455  0.83259477  1
  C  C175  1  0.71323013  0.21682861  0.85542771  1
  C  C176  1  0.60697930  0.32636968  0.59455161  1
  C  C177  1  0.62923766  0.32077552  0.54368338  1
  C  C178  1  0.84835382  0.32256957  0.45359535  1
  C  C179  1  0.86925263  0.31279231  0.40264176  1
  C  C180  1  0.73130110  0.76376977  0.14171845  1
  C  C181  1  0.83108229  0.80231943  0.17295703  1
  C  C182  1  0.80423077  0.83014417  0.22619811  1
  C  C183  1  0.78271673  0.93122816  0.24651272  1
  C  C184  1  0.76123429  0.93164867  0.29832233  1
  C  C185  1  0.76588808  0.83008205  0.31818764  1
  C  C186  1  0.75087174  0.80248734  0.37032248  1
  C  C187  1  0.79209281  0.70668564  0.39040128  1
  C  C188  1  0.77862674  0.68392472  0.44060249  1
  C  C189  1  0.72549533  0.75712556  0.47310243  1
  C  C190  1  0.71384458  0.73608248  0.52681942  1
  C  C191  1  0.74465318  0.81463067  0.56391480  1
  C  C192  1  0.73406608  0.79601890  0.61469488  1
  C  C193  1  0.68975668  0.69885561  0.63059393  1
  C  C194  1  0.67582353  0.67778274  0.68355489  1
  C  C195  1  0.64387401  0.58228561  0.70392891  1
  C  C196  1  0.63629652  0.58888163  0.75674292  1
  C  C197  1  0.66307011  0.68881494  0.77740411  1
  C  C198  1  0.66408502  0.72105019  0.83180845  1
  C  C199  1  0.77803053  0.72034911  0.85610291  1
  C  C200  1  0.65824326  0.62058011  0.59322840  1
  C  C201  1  0.67126398  0.63821033  0.54258527  1
  C  C202  1  0.68413563  0.85269933  0.45311070  1
  C  C203  1  0.69533566  0.87438685  0.40276732  1
  S  S204  1  0.21578015  0.24867778  0.26915850  1
  S  S205  1  0.28238856  0.25949823  0.73059131  1
  S  S206  1  0.24214062  0.81445834  0.27039971  1
  S  S207  1  0.25975817  0.70612168  0.72802075  1
  S  S208  1  0.76269190  0.30027500  0.73094738  1
  S  S209  1  0.72815450  0.22367797  0.26784974  1
  S  S210  1  0.69654598  0.77623330  0.73114892  1
  S  S211  1  0.79646590  0.73422021  0.27149083  1
  I  I212  1  0.25732249  0.01353812  0.96325656  1
  I  I213  1  0.23844837  0.47826076  0.02663192  1
  I  I214  1  0.76164461  0.97223280  0.01837272  1
  I  I215  1  0.73177760  0.51191311  0.96716480  1
  I  I216  1  0.98287418  0.25136414  0.02989025  1
  I  I217  1  0.02911411  0.74478995  0.97729655  1
  I  I218  1  0.51886191  0.25168501  0.98061378  1
  I  I219  1  0.49025177  0.75613724  0.03015679  1
  I  I220  1  0.95330549  0.01432015  0.87599628  1
  I  I221  1  0.06875786  0.98804956  0.10977280  1
  I  I222  1  0.00568840  0.42783706  0.88445260  1
  I  I223  1  0.96624368  0.54442848  0.11760231  1
  I  I224  1  0.53871942  0.96645324  0.88730241  1
  I  I225  1  0.50469944  0.07036262  0.12107684  1
  I  I226  1  0.42869576  0.50130265  0.88425351  1
  I  I227  1  0.54370534  0.48187645  0.11971568  1
  N  N228  1  0.25385266  0.27374404  0.90901188  1
  N  N229  1  0.27417603  0.23782657  0.09282287  1
  N  N230  1  0.27137755  0.73678641  0.90895609  1
  N  N231  1  0.24443729  0.73654233  0.09232364  1
  N  N232  1  0.72496486  0.24238442  0.08834113  1
  N  N233  1  0.75955112  0.22374591  0.90834693  1
  N  N234  1  0.76363711  0.73264214  0.08929559  1
  N  N235  1  0.77267127  0.75904054  0.91001105  1
