# generated using pymatgen
data_H16PbC19SI4N2O
_symmetry_space_group_name_H-M   'P 1'
_cell_length_a   12.47774389
_cell_length_b   12.38820605
_cell_length_c   19.74755001
_cell_angle_alpha   91.67695189
_cell_angle_beta   90.96449916
_cell_angle_gamma   88.90146426
_symmetry_Int_Tables_number   1
_chemical_formula_structural   H16PbC19SI4N2O
_chemical_formula_sum   'H64 Pb4 C76 S4 I16 N8 O4'
_cell_volume   3050.24177618
_cell_formula_units_Z   4
loop_
 _symmetry_equiv_pos_site_id
 _symmetry_equiv_pos_as_xyz
  1  'x, y, z'
loop_
 _atom_site_type_symbol
 _atom_site_label
 _atom_site_symmetry_multiplicity
 _atom_site_fract_x
 _atom_site_fract_y
 _atom_site_fract_z
 _atom_site_occupancy
  H  H0  1  0.35505775  0.33469609  0.83996422  1
  H  H1  1  0.29505435  0.29874394  0.91011774  1
  H  H2  1  0.34721896  0.20150189  0.85725583  1
  H  H3  1  0.16000280  0.35179461  0.83283599  1
  H  H4  1  0.15200313  0.21092165  0.84750314  1
  H  H5  1  0.20618935  0.07594822  0.76234217  1
  H  H6  1  0.22735666  0.02684911  0.64042465  1
  H  H7  1  0.21434432  0.41691262  0.72003047  1
  H  H8  1  0.25052535  0.43587564  0.44984421  1
  H  H9  1  0.25147504  0.03538212  0.49586324  1
  H  H10  1  0.28352373  0.11023188  0.19657323  1
  H  H11  1  0.21533819  0.30039505  0.09410528  1
  H  H12  1  0.31416881  0.20968424  0.10099044  1
  H  H13  1  0.34160847  0.34274957  0.10623920  1
  H  H14  1  0.26680841  0.45889173  0.20140629  1
  H  H15  1  0.25629958  0.46327772  0.32657513  1
  H  H16  1  0.32811551  0.63547276  0.83492511  1
  H  H17  1  0.29465571  0.69741203  0.90711147  1
  H  H18  1  0.19696807  0.65211793  0.85378739  1
  H  H19  1  0.34980673  0.83258263  0.83478846  1
  H  H20  1  0.21001839  0.84766702  0.84996609  1
  H  H21  1  0.07650844  0.79217421  0.76413054  1
  H  H22  1  0.02873302  0.77314625  0.64179955  1
  H  H23  1  0.41517735  0.78483983  0.71923360  1
  H  H24  1  0.43540908  0.74843714  0.44776815  1
  H  H25  1  0.03805054  0.74880366  0.49680884  1
  H  H26  1  0.11551494  0.71592666  0.19521288  1
  H  H27  1  0.30696129  0.79115011  0.09643095  1
  H  H28  1  0.21769062  0.69423713  0.09642728  1
  H  H29  1  0.34940832  0.66094224  0.10272782  1
  H  H30  1  0.46032530  0.73682961  0.19973559  1
  H  H31  1  0.46315384  0.74395490  0.32524958  1
  H  H32  1  0.66470959  0.13575957  0.15994103  1
  H  H33  1  0.71093790  0.19030876  0.09098455  1
  H  H34  1  0.79819631  0.13889754  0.14935333  1
  H  H35  1  0.64897423  0.33136489  0.16636941  1
  H  H36  1  0.78896711  0.34025423  0.15200957  1
  H  H37  1  0.92183884  0.28831176  0.23596023  1
  H  H38  1  0.97084721  0.26918030  0.35758838  1
  H  H39  1  0.58350333  0.28189627  0.28119720  1
  H  H40  1  0.56687502  0.24923404  0.55203131  1
  H  H41  1  0.96368632  0.24623182  0.50091249  1
  H  H42  1  0.89102049  0.20392913  0.80074875  1
  H  H43  1  0.70028161  0.25916223  0.90876819  1
  H  H44  1  0.78537244  0.15467226  0.89414854  1
  H  H45  1  0.65286764  0.13914430  0.88599064  1
  H  H46  1  0.54575552  0.23082369  0.79903575  1
  H  H47  1  0.54127329  0.24841781  0.67445388  1
  H  H48  1  0.86884785  0.66703621  0.16092261  1
  H  H49  1  0.80920033  0.71161742  0.09142948  1
  H  H50  1  0.85259550  0.80262903  0.15049264  1
  H  H51  1  0.67539917  0.64431073  0.16330562  1
  H  H52  1  0.65804423  0.78559332  0.15065029  1
  H  H53  1  0.71414183  0.91916565  0.23642268  1
  H  H54  1  0.73128582  0.96891715  0.35856471  1
  H  H55  1  0.71843855  0.57840155  0.27995402  1
  H  H56  1  0.75227985  0.56214693  0.55156474  1
  H  H57  1  0.75369654  0.96174501  0.50289074  1
  H  H58  1  0.79154246  0.88959382  0.80326287  1
  H  H59  1  0.74246944  0.68426419  0.90779445  1
  H  H60  1  0.81816180  0.79229232  0.90022572  1
  H  H61  1  0.87202757  0.66621475  0.88837121  1
  H  H62  1  0.77213535  0.54187332  0.79992568  1
  H  H63  1  0.75700298  0.53667827  0.67450761  1
  Pb  Pb64  1  0.99566044  0.99454388  0.01032138  1
  Pb  Pb65  1  1.00187581  0.49448963  0.00517575  1
  Pb  Pb66  1  0.49073121  0.99430664  0.01034624  1
  Pb  Pb67  1  0.50556397  0.49557678  0.97983834  1
  C  C68  1  0.19886348  0.27266541  0.82316989  1
  C  C69  1  0.21130189  0.24801028  0.74869624  1
  C  C70  1  0.21471138  0.13920464  0.72564239  1
  C  C71  1  0.22603185  0.11144009  0.65732475  1
  C  C72  1  0.23375692  0.19452956  0.61116622  1
  C  C73  1  0.22960243  0.30300120  0.63518245  1
  C  C74  1  0.21864990  0.33240902  0.70309602  1
  C  C75  1  0.24397386  0.31072832  0.52383691  1
  C  C76  1  0.25058929  0.34956083  0.45909481  1
  C  C77  1  0.25727465  0.27154944  0.40595647  1
  C  C78  1  0.25826101  0.15906261  0.42020179  1
  C  C79  1  0.25123269  0.12150658  0.48592540  1
  C  C80  1  0.24352851  0.19911649  0.53841280  1
  C  C81  1  0.26956240  0.18921023  0.29616033  1
  C  C82  1  0.27667335  0.18619170  0.22557923  1
  C  C83  1  0.27610940  0.28443344  0.19379628  1
  C  C84  1  0.26770033  0.38402648  0.22885778  1
  C  C85  1  0.26184135  0.38583661  0.29904646  1
  C  C86  1  0.26309419  0.28851617  0.33386442  1
  C  C87  1  0.27110634  0.79742887  0.82398030  1
  C  C88  1  0.24741010  0.78768457  0.74915005  1
  C  C89  1  0.13961310  0.78471036  0.72668908  1
  C  C90  1  0.11253558  0.77458849  0.65822041  1
  C  C91  1  0.19531527  0.76732592  0.61123668  1
  C  C92  1  0.30273798  0.77119445  0.63461548  1
  C  C93  1  0.33147720  0.78131765  0.70271403  1
  C  C94  1  0.31101456  0.75597986  0.52288056  1
  C  C95  1  0.34976918  0.74843819  0.45768048  1
  C  C96  1  0.27262423  0.74121083  0.40496410  1
  C  C97  1  0.16103104  0.74040454  0.41990470  1
  C  C98  1  0.12348081  0.74856451  0.48612646  1
  C  C99  1  0.20020424  0.75694885  0.53821401  1
  C  C100  1  0.19203500  0.72893360  0.29515166  1
  C  C101  1  0.19017820  0.72322036  0.22425395  1
  C  C102  1  0.28803143  0.72582518  0.19224137  1
  C  C103  1  0.38595548  0.73442194  0.22747311  1
  C  C104  1  0.38689601  0.73844019  0.29773825  1
  C  C105  1  0.28996451  0.73558550  0.33266276  1
  C  C106  1  0.72755836  0.29339251  0.17666525  1
  C  C107  1  0.75119477  0.28500155  0.25125746  1
  C  C108  1  0.85918616  0.28140002  0.27331295  1
  C  C109  1  0.88695723  0.27116338  0.34129481  1
  C  C110  1  0.80457161  0.26446953  0.38806131  1
  C  C111  1  0.69686792  0.26878405  0.36517975  1
  C  C112  1  0.66740800  0.27881869  0.29751330  1
  C  C113  1  0.69005654  0.25498104  0.47647889  1
  C  C114  1  0.65237189  0.24895977  0.54165565  1
  C  C115  1  0.73057055  0.24263024  0.59370210  1
  C  C116  1  0.84197412  0.24053825  0.57821808  1
  C  C117  1  0.87840707  0.24702479  0.51204865  1
  C  C118  1  0.80068891  0.25498683  0.46071031  1
  C  C119  1  0.81306876  0.22831802  0.70250955  1
  C  C120  1  0.81594980  0.21636045  0.77273037  1
  C  C121  1  0.71808817  0.21579163  0.80485786  1
  C  C122  1  0.61982209  0.23026854  0.77096267  1
  C  C123  1  0.61793925  0.23995328  0.70120987  1
  C  C124  1  0.71442306  0.23722775  0.66582373  1
  C  C125  1  0.70837281  0.72415328  0.17557024  1
  C  C126  1  0.71646002  0.74732010  0.25066801  1
  C  C127  1  0.71997500  0.85603773  0.27357079  1
  C  C128  1  0.72924164  0.88425154  0.34199041  1
  C  C129  1  0.73534274  0.80133445  0.38853304  1
  C  C130  1  0.73110732  0.69278484  0.36488785  1
  C  C131  1  0.72165824  0.66296358  0.29670570  1
  C  C132  1  0.74567898  0.68618927  0.47659585  1
  C  C133  1  0.75256733  0.64822769  0.54170761  1
  C  C134  1  0.75927589  0.72693743  0.59441353  1
  C  C135  1  0.76066400  0.83909096  0.57948137  1
  C  C136  1  0.75350157  0.87583308  0.51340969  1
  C  C137  1  0.74526647  0.79752397  0.46140608  1
  C  C138  1  0.77209649  0.81039246  0.70393190  1
  C  C139  1  0.78132789  0.81388686  0.77456527  1
  C  C140  1  0.78165428  0.71608166  0.80673901  1
  C  C141  1  0.77111900  0.61645408  0.77209590  1
  C  C142  1  0.76304046  0.61407095  0.70189251  1
  C  C143  1  0.76477685  0.71089825  0.66669285  1
  S  S144  1  0.26832576  0.07686446  0.34697101  1
  S  S145  1  0.08024030  0.72979295  0.34674282  1
  S  S146  1  0.92409837  0.22938169  0.65048936  1
  S  S147  1  0.77103964  0.92200179  0.65243237  1
  I  I148  1  0.24946134  -0.00029574  0.05253250  1
  I  I149  1  0.25761939  0.47960737  0.98984649  1
  I  I150  1  0.74552139  0.95333554  0.98242066  1
  I  I151  1  0.75224564  0.53383725  0.00834633  1
  I  I152  1  0.03747634  0.24460783  0.99775102  1
  I  I153  1  0.04795380  0.74462074  0.02017441  1
  I  I154  1  0.54061157  0.24590113  0.01140729  1
  I  I155  1  0.47835901  0.74508320  0.97654734  1
  I  I156  1  0.00157265  0.99493892  0.84968004  1
  I  I157  1  0.93929907  0.99379638  0.17012738  1
  I  I158  1  0.02303539  0.54174594  0.84298125  1
  I  I159  1  0.99507510  0.50012086  0.16590460  1
  I  I160  1  0.46887665  0.02947897  0.84961769  1
  I  I161  1  0.51761634  0.00954778  0.17161829  1
  I  I162  1  0.47533564  0.49048305  0.81362683  1
  I  I163  1  0.48880880  0.50181135  0.14008637  1
  N  N164  1  0.30593750  0.27587026  0.85980484  1
  N  N165  1  0.28717363  0.28427651  0.11960831  1
  N  N166  1  0.27166455  0.68899425  0.85662897  1
  N  N167  1  0.29073628  0.71754603  0.11788167  1
  N  N168  1  0.72673371  0.18342065  0.14223981  1
  N  N169  1  0.71541537  0.19225153  0.87753587  1
  N  N170  1  0.81665389  0.72744752  0.14297368  1
  N  N171  1  0.80368978  0.71553937  0.87994191  1
  O  O172  1  0.23599851  0.37434364  0.58263398  1
  O  O173  1  0.37381356  0.76444037  0.58133903  1
  O  O174  1  0.62644451  0.26275293  0.41850243  1
  O  O175  1  0.73731598  0.62199526  0.41801260  1
