# generated using pymatgen
data_H26PbC26(I2N)2
_symmetry_space_group_name_H-M   'P 1'
_cell_length_a   12.75986785
_cell_length_b   13.03320477
_cell_length_c   23.50062880
_cell_angle_alpha   85.28898077
_cell_angle_beta   87.26406656
_cell_angle_gamma   90.34274527
_symmetry_Int_Tables_number   1
_chemical_formula_structural   H26PbC26(I2N)2
_chemical_formula_sum   'H104 Pb4 C104 I16 N8'
_cell_volume   3890.36519845
_cell_formula_units_Z   4
loop_
 _symmetry_equiv_pos_site_id
 _symmetry_equiv_pos_as_xyz
  1  'x, y, z'
loop_
 _atom_site_type_symbol
 _atom_site_label
 _atom_site_symmetry_multiplicity
 _atom_site_fract_x
 _atom_site_fract_y
 _atom_site_fract_z
 _atom_site_occupancy
  H  H0  1  0.33946380  0.20553315  0.87543125  1
  H  H1  1  0.24613385  0.18378426  0.92654617  1
  H  H2  1  0.29515661  0.30295006  0.91472953  1
  H  H3  1  0.12341931  0.29616732  0.87893249  1
  H  H4  1  0.16184232  0.18869715  0.84150295  1
  H  H5  1  0.22458153  0.46874541  0.85234063  1
  H  H6  1  0.26284476  0.59212901  0.76674345  1
  H  H7  1  0.27245525  0.53204389  0.67058055  1
  H  H8  1  0.21419965  0.48202684  0.59580573  1
  H  H9  1  0.22667127  0.42313209  0.50054169  1
  H  H10  1  0.30643067  0.37833691  0.42476884  1
  H  H11  1  0.31524915  0.31934390  0.32928726  1
  H  H12  1  0.35119585  0.96937670  0.32850310  1
  H  H13  1  0.38109555  0.90921066  0.23240255  1
  H  H14  1  0.35829257  0.02860428  0.14614039  1
  H  H15  1  0.32756624  0.30950876  0.15421100  1
  H  H16  1  0.37833769  0.21078240  0.11362505  1
  H  H17  1  0.15145942  0.26538459  0.12832469  1
  H  H18  1  0.20280877  0.16782998  0.09066113  1
  H  H19  1  0.23195626  0.29162848  0.07180646  1
  H  H20  1  0.25310045  0.26380734  0.25264050  1
  H  H21  1  0.25285060  0.00804943  0.40033336  1
  H  H22  1  0.24010546  0.06739904  0.49573078  1
  H  H23  1  0.29588319  0.11662822  0.57199908  1
  H  H24  1  0.28359969  0.17555191  0.66729474  1
  H  H25  1  0.21666033  0.22094669  0.74304612  1
  H  H26  1  0.22083744  0.68273342  0.87291728  1
  H  H27  1  0.18398210  0.77377906  0.91570416  1
  H  H28  1  0.30787139  0.73296560  0.91507164  1
  H  H29  1  0.30858876  0.89577194  0.86463437  1
  H  H30  1  0.19980490  0.86135526  0.82596299  1
  H  H31  1  0.48260791  0.79533310  0.84740080  1
  H  H32  1  0.60415727  0.74958454  0.76663309  1
  H  H33  1  0.53759231  0.72994269  0.67214416  1
  H  H34  1  0.48729939  0.79144404  0.59258821  1
  H  H35  1  0.42667408  0.76819852  0.49778113  1
  H  H36  1  0.38080251  0.66193312  0.43526890  1
  H  H37  1  0.32335982  0.63611852  0.33987387  1
  H  H38  1  0.96375019  0.64537632  0.32531116  1
  H  H39  1  0.90178754  0.63689779  0.22841755  1
  H  H40  1  0.02673888  0.65094083  0.14422123  1
  H  H41  1  0.31820354  0.65659363  0.15634113  1
  H  H42  1  0.21711101  0.61302228  0.11523371  1
  H  H43  1  0.24500342  0.83510434  0.13197189  1
  H  H44  1  0.17147252  0.78092110  0.08503237  1
  H  H45  1  0.30179249  0.77635984  0.07739891  1
  H  H46  1  0.28083478  0.68990439  0.25454900  1
  H  H47  1  0.01223780  0.73483880  0.38945850  1
  H  H48  1  0.06916127  0.75937449  0.48473722  1
  H  H49  1  0.11464910  0.70015891  0.57051650  1
  H  H50  1  0.17537909  0.72252336  0.66546514  1
  H  H51  1  0.22675665  0.80743260  0.73472319  1
  H  H52  1  0.81915919  0.15250651  0.13372800  1
  H  H53  1  0.83066527  0.23114028  0.07415239  1
  H  H54  1  0.71296038  0.17844692  0.09681467  1
  H  H55  1  0.72606930  0.36121404  0.11315900  1
  H  H56  1  0.83436467  0.33068361  0.15585033  1
  H  H57  1  0.54948711  0.30861530  0.14201461  1
  H  H58  1  0.42349871  0.30552902  0.22601503  1
  H  H59  1  0.48203602  0.26722145  0.32243455  1
  H  H60  1  0.52828906  0.28239481  0.39562814  1
  H  H61  1  0.58177145  0.26585398  0.49321789  1
  H  H62  1  0.62430786  0.16512996  0.56905634  1
  H  H63  1  0.67675371  0.15971463  0.66835822  1
  H  H64  1  0.02912306  0.17288881  0.68264203  1
  H  H65  1  0.08401875  0.15023294  0.78121355  1
  H  H66  1  0.96041517  0.17677609  0.86274862  1
  H  H67  1  0.67212760  0.18438566  0.84620555  1
  H  H68  1  0.77356773  0.14110995  0.89081082  1
  H  H69  1  0.71058206  0.36036396  0.86620887  1
  H  H70  1  0.81601332  0.32268196  0.90222719  1
  H  H71  1  0.69372000  0.28567636  0.92679397  1
  H  H72  1  0.71471544  0.23492697  0.74556518  1
  H  H73  1  0.98727869  0.26559607  0.60927402  1
  H  H74  1  0.93535059  0.26957278  0.51038136  1
  H  H75  1  0.89590211  0.19263290  0.43457701  1
  H  H76  1  0.84275696  0.20922400  0.33604347  1
  H  H77  1  0.80180603  0.25697652  0.25491857  1
  H  H78  1  0.81062535  0.81230047  0.13094891  1
  H  H79  1  0.72510794  0.84083647  0.08096269  1
  H  H80  1  0.77456576  0.72184883  0.08736346  1
  H  H81  1  0.60100784  0.71052136  0.12606856  1
  H  H82  1  0.62355922  0.81879321  0.16593456  1
  H  H83  1  0.71973963  0.55060510  0.14693556  1
  H  H84  1  0.78119090  0.43334686  0.22700062  1
  H  H85  1  0.78257011  0.48802025  0.32411871  1
  H  H86  1  0.69730586  0.52322450  0.40141699  1
  H  H87  1  0.72386033  0.57145091  0.49815931  1
  H  H88  1  0.83792772  0.60623355  0.56090803  1
  H  H89  1  0.86242230  0.64874638  0.65911937  1
  H  H90  1  0.86128668  0.99443106  0.67602705  1
  H  H91  1  0.87879107  0.04741384  0.77300807  1
  H  H92  1  0.86214914  0.92260901  0.85686445  1
  H  H93  1  0.83606131  0.63972326  0.84980828  1
  H  H94  1  0.88561956  0.73863689  0.88898515  1
  H  H95  1  0.66122086  0.69532529  0.87095654  1
  H  H96  1  0.70716688  0.79860976  0.90397096  1
  H  H97  1  0.72536897  0.67757866  0.93091025  1
  H  H98  1  0.80103956  0.68224586  0.74719279  1
  H  H99  1  0.75830206  0.95821814  0.61460945  1
  H  H100  1  0.73450688  0.91606093  0.51683087  1
  H  H101  1  0.80092348  0.88192224  0.43060267  1
  H  H102  1  0.77504853  0.83342668  0.33353225  1
  H  H103  1  0.67197371  0.78748571  0.26263082  1
  Pb  Pb104  1  0.98559386  0.99131334  0.01494868  1
  Pb  Pb105  1  0.99591343  0.48877220  0.00534871  1
  Pb  Pb106  1  0.50541716  0.00915044  0.99462536  1
  Pb  Pb107  1  0.50098796  0.50040700  0.99438629  1
  C  C108  1  0.18811141  0.26334371  0.85381133  1
  C  C109  1  0.22014084  0.33643730  0.80293609  1
  C  C110  1  0.23250491  0.44155226  0.80969027  1
  C  C111  1  0.25200339  0.51038823  0.76177721  1
  C  C112  1  0.25715356  0.47608431  0.70710435  1
  C  C113  1  0.24455400  0.37108868  0.69875251  1
  C  C114  1  0.24874662  0.33442256  0.64048636  1
  C  C115  1  0.23331974  0.40150348  0.59145631  1
  C  C116  1  0.24053246  0.36770441  0.53670339  1
  C  C117  1  0.26318650  0.26449713  0.52736378  1
  C  C118  1  0.27153454  0.22843954  0.46909971  1
  C  C119  1  0.29222083  0.29686833  0.42016647  1
  C  C120  1  0.29765765  0.26290621  0.36542747  1
  C  C121  1  0.28489951  0.15816029  0.35616322  1
  C  C122  1  0.29647141  0.12055623  0.29830427  1
  C  C123  1  0.33255821  0.02013727  0.29122175  1
  C  C124  1  0.35024822  0.98619473  0.23698819  1
  C  C125  1  0.33698683  0.05279090  0.18839678  1
  C  C126  1  0.30412739  0.15389006  0.19394914  1
  C  C127  1  0.31257195  0.23114954  0.14238152  1
  C  C128  1  0.28013779  0.18524102  0.24864493  1
  C  C129  1  0.26514860  0.08973482  0.40507654  1
  C  C130  1  0.25822651  0.12381323  0.45969986  1
  C  C131  1  0.27680430  0.19710933  0.57645138  1
  C  C132  1  0.26968492  0.23094602  0.63116183  1
  C  C133  1  0.22765427  0.30261591  0.74791557  1
  C  C134  1  0.27404232  0.83350956  0.84256406  1
  C  C135  1  0.34688101  0.80023366  0.79591898  1
  C  C136  1  0.45349020  0.78565823  0.80521176  1
  C  C137  1  0.52093646  0.76101271  0.76013558  1
  C  C138  1  0.48304699  0.75119161  0.70620132  1
  C  C139  1  0.37644644  0.76692515  0.69535648  1
  C  C140  1  0.33730143  0.75722758  0.63760524  1
  C  C141  1  0.40552684  0.76954710  0.58856859  1
  C  C142  1  0.37092359  0.75628410  0.53440636  1
  C  C143  1  0.26583430  0.73024288  0.52588557  1
  C  C144  1  0.23031054  0.71362894  0.46825518  1
  C  C145  1  0.29975131  0.67936538  0.42549735  1
  C  C146  1  0.26693924  0.66472268  0.37102805  1
  C  C147  1  0.16285194  0.68393932  0.35609442  1
  C  C148  1  0.12699084  0.67221070  0.29789477  1
  C  C149  1  0.02006862  0.65587285  0.28891596  1
  C  C150  1  0.98441343  0.65069527  0.23419745  1
  C  C151  1  0.05444264  0.65835484  0.18688699  1
  C  C152  1  0.16162231  0.67078270  0.19458856  1
  C  C153  1  0.23770166  0.67159704  0.14402739  1
  C  C154  1  0.19700956  0.67858344  0.24954170  1
  C  C155  1  0.09327027  0.71719348  0.39905303  1
  C  C156  1  0.12586035  0.73136449  0.45354100  1
  C  C157  1  0.19681518  0.72066039  0.57469797  1
  C  C158  1  0.23157852  0.73375280  0.62898025  1
  C  C159  1  0.30944491  0.79165123  0.74144796  1
  C  C160  1  0.75839598  0.30215731  0.14337868  1
  C  C161  1  0.68277575  0.27955846  0.19374472  1
  C  C162  1  0.57608262  0.29194335  0.18510094  1
  C  C163  1  0.50564893  0.28955408  0.23201661  1
  C  C164  1  0.53983184  0.27056580  0.28689424  1
  C  C165  1  0.64664986  0.25710353  0.29719688  1
  C  C166  1  0.68052436  0.24614993  0.35673536  1
  C  C167  1  0.60926669  0.26131396  0.40296792  1
  C  C168  1  0.63946834  0.25155487  0.45906489  1
  C  C169  1  0.74316038  0.22691184  0.47218739  1
  C  C170  1  0.77518439  0.21925646  0.53174569  1
  C  C171  1  0.70377472  0.18885728  0.57763776  1
  C  C172  1  0.73325656  0.18640876  0.63394272  1
  C  C173  1  0.83546769  0.21470422  0.64684541  1
  C  C174  1  0.86884487  0.21165442  0.70616967  1
  C  C175  1  0.97379482  0.18913397  0.71747624  1
  C  C176  1  0.00571845  0.17825042  0.77322062  1
  C  C177  1  0.93534629  0.19081356  0.81911920  1
  C  C178  1  0.82983264  0.21028531  0.80914098  1
  C  C179  1  0.75118915  0.20275912  0.85903737  1
  C  C180  1  0.79755537  0.22189233  0.75289271  1
  C  C181  1  0.90745616  0.24276867  0.60091693  1
  C  C182  1  0.87809537  0.24477331  0.54474558  1
  C  C183  1  0.81492393  0.21284592  0.42622610  1
  C  C184  1  0.78436883  0.22209478  0.37002844  1
  C  C185  1  0.71747383  0.26140763  0.24928622  1
  C  C186  1  0.65802015  0.74806462  0.15148880  1
  C  C187  1  0.69265341  0.67657991  0.20004598  1
  C  C188  1  0.72212290  0.57616089  0.18987757  1
  C  C189  1  0.75440330  0.50980264  0.23484560  1
  C  C190  1  0.75493497  0.54114108  0.28992815  1
  C  C191  1  0.72612783  0.64165094  0.30127006  1
  C  C192  1  0.73466298  0.67428104  0.35960981  1
  C  C193  1  0.72120738  0.60199676  0.40732219  1
  C  C194  1  0.73655041  0.62926874  0.46220912  1
  C  C195  1  0.76583574  0.73020581  0.47227611  1
  C  C196  1  0.78325880  0.75721795  0.53089096  1
  C  C197  1  0.81884918  0.68344921  0.57259451  1
  C  C198  1  0.83275972  0.70750266  0.62837334  1
  C  C199  1  0.81181681  0.80668051  0.64512475  1
  C  C200  1  0.82657253  0.83482278  0.70386007  1
  C  C201  1  0.84957103  0.93770141  0.71253480  1
  C  C202  1  0.86013075  0.96833659  0.76708384  1
  C  C203  1  0.85069958  0.89764513  0.81445315  1
  C  C204  1  0.83078270  0.79415828  0.80715995  1
  C  C205  1  0.82545941  0.71988805  0.85941200  1
  C  C206  1  0.81822461  0.76308571  0.75219352  1
  C  C207  1  0.77696279  0.88071257  0.60326853  1
  C  C208  1  0.76340618  0.85679355  0.54754736  1
  C  C209  1  0.77705938  0.80312959  0.42468874  1
  C  C210  1  0.76189771  0.77580244  0.36958700  1
  C  C211  1  0.69525052  0.70895488  0.25529061  1
  I  I212  1  0.25810855  0.02823085  0.02743164  1
  I  I213  1  0.25511262  0.44420707  0.98577979  1
  I  I214  1  0.75455684  0.94285575  0.97299493  1
  I  I215  1  0.75428418  0.56215529  0.02006284  1
  I  I216  1  0.95975793  0.22997123  0.99074407  1
  I  I217  1  0.04592677  0.72937084  0.00966634  1
  I  I218  1  0.55750470  0.26419581  0.00823034  1
  I  I219  1  0.44749977  0.76447566  0.99016850  1
  I  I220  1  0.07894299  0.98613556  0.89189989  1
  I  I221  1  0.95633384  0.98320080  0.15134655  1
  I  I222  1  0.97184729  0.47766131  0.87405693  1
  I  I223  1  0.02894165  0.40990873  0.13822019  1
  I  I224  1  0.47528231  0.06749933  0.86146305  1
  I  I225  1  0.58894918  0.01434242  0.12025974  1
  I  I226  1  0.56884969  0.51155411  0.85670659  1
  I  I227  1  0.46699648  0.51797734  0.12338466  1
  N  N228  1  0.27342613  0.23845375  0.89469094  1
  N  N229  1  0.21800916  0.23814647  0.10675283  1
  N  N230  1  0.24504919  0.74941910  0.88904319  1
  N  N231  1  0.23950435  0.77311477  0.10788658  1
  N  N232  1  0.78140766  0.21083713  0.11014360  1
  N  N233  1  0.74323057  0.29883524  0.89011947  1
  N  N234  1  0.74858370  0.78236104  0.11038243  1
  N  N235  1  0.72211026  0.72457074  0.89277448  1
