# generated using pymatgen
data_H18PbC15(IN)4
_symmetry_space_group_name_H-M   'P 1'
_cell_length_a   12.37125305
_cell_length_b   12.27731090
_cell_length_c   18.78888645
_cell_angle_alpha   87.65263817
_cell_angle_beta   88.64834879
_cell_angle_gamma   89.64904034
_symmetry_Int_Tables_number   1
_chemical_formula_structural   H18PbC15(IN)4
_chemical_formula_sum   'H72 Pb4 C60 I16 N16'
_cell_volume   2850.53748000
_cell_formula_units_Z   4
loop_
 _symmetry_equiv_pos_site_id
 _symmetry_equiv_pos_as_xyz
  1  'x, y, z'
loop_
 _atom_site_type_symbol
 _atom_site_label
 _atom_site_symmetry_multiplicity
 _atom_site_fract_x
 _atom_site_fract_y
 _atom_site_fract_z
 _atom_site_occupancy
  H  H0  1  0.18146151  0.39118627  0.82283938  1
  H  H1  1  0.25645102  0.35713617  0.89289818  1
  H  H2  1  0.16242438  0.27331575  0.86799890  1
  H  H3  1  0.31916930  0.18982674  0.82677729  1
  H  H4  1  0.38126113  0.31882635  0.81126625  1
  H  H5  1  0.30778012  0.44376647  0.70226292  1
  H  H6  1  0.28644517  0.43059704  0.57190296  1
  H  H7  1  0.18359054  0.40589677  0.31169266  1
  H  H8  1  0.10588286  0.35573203  0.19428088  1
  H  H9  1  0.13070467  0.22570162  0.15960410  1
  H  H10  1  0.23434642  0.38820484  0.10655568  1
  H  H11  1  0.30693622  0.27687667  0.12386078  1
  H  H12  1  0.31197800  0.38104280  0.17804776  1
  H  H13  1  0.20763086  0.08117391  0.23073578  1
  H  H14  1  0.25330914  0.00204146  0.35058222  1
  H  H15  1  0.28440668  0.07480759  0.49405931  1
  H  H16  1  0.23678005  0.08320777  0.60215034  1
  H  H17  1  0.25763421  0.09690310  0.73086984  1
  H  H18  1  0.37982262  0.84233962  0.82339894  1
  H  H19  1  0.33871723  0.77795822  0.89837727  1
  H  H20  1  0.25068862  0.85241705  0.85059708  1
  H  H21  1  0.20890816  0.66957816  0.83153409  1
  H  H22  1  0.34812313  0.63666492  0.82146817  1
  H  H23  1  0.45063952  0.69247058  0.70604143  1
  H  H24  1  0.43257802  0.71156288  0.57464636  1
  H  H25  1  0.40040933  0.81313162  0.31068750  1
  H  H26  1  0.33848455  0.90120603  0.19104870  1
  H  H27  1  0.21129066  0.86407523  0.15748712  1
  H  H28  1  0.38078397  0.77903835  0.10808601  1
  H  H29  1  0.28117826  0.69277227  0.12842593  1
  H  H30  1  0.38654057  0.69984149  0.18213144  1
  H  H31  1  0.07607867  0.79018343  0.23149461  1
  H  H32  1  0.00099352  0.74514153  0.35334001  1
  H  H33  1  0.07729906  0.71438014  0.49778760  1
  H  H34  1  0.08815259  0.75937499  0.60408376  1
  H  H35  1  0.10665713  0.73962858  0.73357538  1
  H  H36  1  0.61896247  0.31219870  0.16835959  1
  H  H37  1  0.67739336  0.25188039  0.09782788  1
  H  H38  1  0.74944188  0.33504152  0.14714465  1
  H  H39  1  0.80325221  0.15288815  0.17301104  1
  H  H40  1  0.66649781  0.11246157  0.18564861  1
  H  H41  1  0.55809570  0.18434301  0.29483106  1
  H  H42  1  0.57270050  0.21336484  0.42453744  1
  H  H43  1  0.59095473  0.29381639  0.68355835  1
  H  H44  1  0.64390681  0.38980102  0.79788269  1
  H  H45  1  0.77155395  0.36147131  0.83534846  1
  H  H46  1  0.60507305  0.27283155  0.88893904  1
  H  H47  1  0.71124582  0.19157648  0.88023701  1
  H  H48  1  0.60915510  0.18390563  0.82399997  1
  H  H49  1  0.91302974  0.28909548  0.76932395  1
  H  H50  1  0.99603253  0.25591520  0.65006487  1
  H  H51  1  0.92868530  0.23746162  0.50426523  1
  H  H52  1  0.91874842  0.24836775  0.39575639  1
  H  H53  1  0.90338231  0.21912118  0.26842154  1
  H  H54  1  0.70103116  0.61329918  0.17367248  1
  H  H55  1  0.75459554  0.67691830  0.10026769  1
  H  H56  1  0.66534007  0.74340317  0.15200004  1
  H  H57  1  0.83968607  0.81210044  0.16973747  1
  H  H58  1  0.89085174  0.67674102  0.18194264  1
  H  H59  1  0.81278097  0.56044647  0.29376419  1
  H  H60  1  0.78327633  0.57311724  0.42477161  1
  H  H61  1  0.70625664  0.58464006  0.68597494  1
  H  H62  1  0.63025289  0.62277544  0.80708190  1
  H  H63  1  0.63636117  0.75463177  0.84123048  1
  H  H64  1  0.75451385  0.60935332  0.89478818  1
  H  H65  1  0.81734124  0.72523778  0.87377793  1
  H  H66  1  0.83568103  0.61858275  0.82277610  1
  H  H67  1  0.71232547  0.90646992  0.77238369  1
  H  H68  1  0.74175857  0.99382589  0.65186301  1
  H  H69  1  0.76125382  0.93025496  0.50480103  1
  H  H70  1  0.75240209  0.92325379  0.39642017  1
  H  H71  1  0.78280131  0.90968744  0.26787099  1
  Pb  Pb72  1  0.01526317  0.99173715  0.99234503  1
  Pb  Pb73  1  0.98942208  0.50033761  0.99925733  1
  Pb  Pb74  1  0.52375175  0.99295115  0.00148264  1
  Pb  Pb75  1  0.49317745  0.48764321  0.02181191  1
  C  C76  1  0.30740699  0.27215258  0.80341089  1
  C  C77  1  0.28400684  0.27038121  0.72555129  1
  C  C78  1  0.29089453  0.36460734  0.68037413  1
  C  C79  1  0.27934036  0.35793114  0.60704742  1
  C  C80  1  0.26152716  0.25625843  0.57726501  1
  C  C81  1  0.25167760  0.24630525  0.50035700  1
  C  C82  1  0.22464414  0.27571927  0.38802280  1
  C  C83  1  0.20059953  0.31895405  0.31999702  1
  C  C84  1  0.19660281  0.24738382  0.26392593  1
  C  C85  1  0.16554983  0.28955125  0.19117659  1
  C  C86  1  0.21647457  0.13452420  0.27525928  1
  C  C87  1  0.24075681  0.08955614  0.34219101  1
  C  C88  1  0.24440889  0.16168796  0.39756843  1
  C  C89  1  0.25330052  0.16289959  0.62296711  1
  C  C90  1  0.26426433  0.16992980  0.69602894  1
  C  C91  1  0.28636036  0.69811537  0.80819057  1
  C  C92  1  0.27938800  0.71571075  0.72890633  1
  C  C93  1  0.37106040  0.70820191  0.68363050  1
  C  C94  1  0.36167313  0.71850789  0.60981026  1
  C  C95  1  0.25955349  0.73594919  0.57973926  1
  C  C96  1  0.24740030  0.74590469  0.50251420  1
  C  C97  1  0.27365598  0.77188958  0.38905944  1
  C  C98  1  0.31463948  0.79567733  0.32002247  1
  C  C99  1  0.24162619  0.80037200  0.26405716  1
  C  C100  1  0.27875885  0.83559843  0.19025755  1
  C  C101  1  0.13019943  0.78072945  0.27634472  1
  C  C102  1  0.08752493  0.75698216  0.34426836  1
  C  C103  1  0.16073688  0.75317756  0.39960186  1
  C  C104  1  0.16825611  0.74379299  0.62540597  1
  C  C105  1  0.17806315  0.73377064  0.69883540  1
  C  C106  1  0.72412632  0.17789774  0.19474817  1
  C  C107  1  0.73001416  0.20051400  0.27253703  1
  C  C108  1  0.63715385  0.19930322  0.31714121  1
  C  C109  1  0.64471753  0.21463624  0.38993223  1
  C  C110  1  0.74623305  0.23077029  0.42015062  1
  C  C111  1  0.75552987  0.24262367  0.49696410  1
  C  C112  1  0.72331566  0.26286909  0.60918630  1
  C  C113  1  0.67820479  0.28270606  0.67658997  1
  C  C114  1  0.74864664  0.29211639  0.73328594  1
  C  C115  1  0.70701561  0.32725753  0.80423619  1
  C  C116  1  0.86159870  0.28005930  0.72360664  1
  C  C117  1  0.90854479  0.26207185  0.65718760  1
  C  C118  1  0.83786096  0.25523332  0.60081489  1
  C  C119  1  0.83874506  0.23347138  0.37503865  1
  C  C120  1  0.83071285  0.21830976  0.30242142  1
  C  C121  1  0.82208105  0.73069714  0.19326998  1
  C  C122  1  0.79872490  0.73459946  0.27192098  1
  C  C123  1  0.79833644  0.63982963  0.31659058  1
  C  C124  1  0.78276836  0.64639345  0.38994733  1
  C  C125  1  0.76750287  0.74846586  0.42040029  1
  C  C126  1  0.75474199  0.75617204  0.49752069  1
  C  C127  1  0.73421161  0.72051002  0.61045024  1
  C  C128  1  0.71609512  0.67279873  0.67865056  1
  C  C129  1  0.70847630  0.74174116  0.73610938  1
  C  C130  1  0.68074194  0.69563021  0.80919551  1
  C  C131  1  0.72007613  0.85583931  0.72619677  1
  C  C132  1  0.73619934  0.90541635  0.65900031  1
  C  C133  1  0.74202558  0.83612186  0.60201451  1
  C  C134  1  0.76645142  0.84278181  0.37529660  1
  C  C135  1  0.78209542  0.83585895  0.30213520  1
  I  I136  1  0.26459057  0.93501739  0.00597448  1
  I  I137  1  0.23781898  0.56671123  0.02154451  1
  I  I138  1  0.75850145  0.09241741  0.99714183  1
  I  I139  1  0.73843191  0.43966305  0.98442476  1
  I  I140  1  0.06152228  0.25313653  0.99367189  1
  I  I141  1  0.90394114  0.75258046  0.00195166  1
  I  I142  1  0.42516042  0.23555480  0.01196727  1
  I  I143  1  0.54593069  0.73546966  0.99110909  1
  I  I144  1  0.06002296  0.97361381  0.82291844  1
  I  I145  1  0.99279229  0.00499740  0.16053631  1
  I  I146  1  0.01565348  0.51772865  0.82350323  1
  I  I147  1  0.91559790  0.45190716  0.16323478  1
  I  I148  1  0.50062495  0.01078809  0.82594251  1
  I  I149  1  0.55981218  0.92522389  0.16779181  1
  I  I150  1  0.47403866  0.48394441  0.85808263  1
  I  I151  1  0.49773134  0.49077509  0.19964854  1
  N  N152  1  0.22208588  0.32645185  0.84831160  1
  N  N153  1  0.22958801  0.32575518  0.45275326  1
  N  N154  1  0.26017723  0.33614985  0.14798015  1
  N  N155  1  0.26142998  0.14584397  0.46941067  1
  N  N156  1  0.31567170  0.79822645  0.84686963  1
  N  N157  1  0.32498713  0.76714169  0.45398051  1
  N  N158  1  0.33487648  0.74587756  0.15042470  1
  N  N159  1  0.14699339  0.73691649  0.47208610  1
  N  N160  1  0.68908385  0.27535312  0.14942714  1
  N  N161  1  0.67474948  0.25358833  0.54396858  1
  N  N162  1  0.65570974  0.23866295  0.85116597  1
  N  N163  1  0.85540682  0.24243652  0.52906989  1
  N  N164  1  0.72910409  0.68719421  0.15267948  1
  N  N165  1  0.74326137  0.67345982  0.54481134  1
  N  N166  1  0.77751406  0.66110206  0.85177711  1
  N  N167  1  0.75472762  0.85582298  0.52973749  1
