# generated using pymatgen
data_H16PbC13S(IN)4
_symmetry_space_group_name_H-M   'P 1'
_cell_length_a   12.32905069
_cell_length_b   12.34162007
_cell_length_c   18.09815983
_cell_angle_alpha   93.12014224
_cell_angle_beta   92.63366549
_cell_angle_gamma   91.40104505
_symmetry_Int_Tables_number   1
_chemical_formula_structural   H16PbC13S(IN)4
_chemical_formula_sum   'H64 Pb4 C52 S4 I16 N16'
_cell_volume   2745.83471352
_cell_formula_units_Z   4
loop_
 _symmetry_equiv_pos_site_id
 _symmetry_equiv_pos_as_xyz
  1  'x, y, z'
loop_
 _atom_site_type_symbol
 _atom_site_label
 _atom_site_symmetry_multiplicity
 _atom_site_fract_x
 _atom_site_fract_y
 _atom_site_fract_z
 _atom_site_occupancy
  H  H0  1  0.25679416  0.32649757  0.90000615  1
  H  H1  1  0.32472856  0.33726265  0.82266437  1
  H  H2  1  0.31439332  0.21744368  0.86291620  1
  H  H3  1  0.11889067  0.32883738  0.80967383  1
  H  H4  1  0.12967126  0.19024717  0.83221240  1
  H  H5  1  0.19420330  0.05531363  0.74450152  1
  H  H6  1  0.23515334  0.99782360  0.61513564  1
  H  H7  1  0.27256663  0.09669350  0.47499047  1
  H  H8  1  0.28726077  0.47329096  0.42201727  1
  H  H9  1  0.31800915  0.47030423  0.27791858  1
  H  H10  1  0.35202718  0.18560163  0.18771259  1
  H  H11  1  0.35726754  0.32634059  0.16979879  1
  H  H12  1  0.15782145  0.18107720  0.16882730  1
  H  H13  1  0.21569856  0.23613671  0.09671083  1
  H  H14  1  0.15690072  0.31759298  0.15873486  1
  H  H15  1  0.18586207  0.39306768  0.69145998  1
  H  H16  1  0.29782188  0.73125918  0.89835280  1
  H  H17  1  0.32870333  0.67805796  0.81598390  1
  H  H18  1  0.19947606  0.67030765  0.84037591  1
  H  H19  1  0.32384941  0.87743212  0.82083554  1
  H  H20  1  0.18292537  0.86546670  0.83916922  1
  H  H21  1  0.05005771  0.80360885  0.74475878  1
  H  H22  1  -0.00459255  0.76159690  0.61179314  1
  H  H23  1  0.09780661  0.72403365  0.47114959  1
  H  H24  1  0.47602872  0.71982995  0.42044801  1
  H  H25  1  0.47608499  0.69326840  0.27425451  1
  H  H26  1  0.19302932  0.64987531  0.17933672  1
  H  H27  1  0.33430675  0.65202852  0.16183287  1
  H  H28  1  0.19261443  0.84754142  0.17500657  1
  H  H29  1  0.25092683  0.79253294  0.10043497  1
  H  H30  1  0.32813973  0.85363291  0.16914748  1
  H  H31  1  0.39032253  0.81696352  0.69646152  1
  H  H32  1  0.67766146  0.23980336  0.09742336  1
  H  H33  1  0.65743731  0.17232512  0.17296811  1
  H  H34  1  0.77952583  0.17441988  0.13658294  1
  H  H35  1  0.67437882  0.37559366  0.19096121  1
  H  H36  1  0.81253766  0.36197931  0.16861971  1
  H  H37  1  0.94532230  0.30734618  0.25708717  1
  H  H38  1  1.00254960  0.27920241  0.38826528  1
  H  H39  1  0.90335108  0.25047393  0.52924883  1
  H  H40  1  0.52294209  0.22322911  0.57823869  1
  H  H41  1  0.51996704  0.18629086  0.72120989  1
  H  H42  1  0.80163575  0.13805875  0.81225177  1
  H  H43  1  0.66077776  0.13249399  0.82858078  1
  H  H44  1  0.79933018  0.33537850  0.83399849  1
  H  H45  1  0.75609828  0.27134696  0.90609212  1
  H  H46  1  0.66632423  0.32986314  0.84918366  1
  H  H47  1  0.60556982  0.29641699  0.30771175  1
  H  H48  1  0.77452763  0.68928835  0.09564117  1
  H  H49  1  0.84411199  0.67681150  0.17530011  1
  H  H50  1  0.83018659  0.80004394  0.14021476  1
  H  H51  1  0.63901352  0.66703906  0.17763195  1
  H  H52  1  0.64332219  0.80727937  0.15882719  1
  H  H53  1  0.69937962  0.94448165  0.25224968  1
  H  H54  1  0.72106066  1.00230304  0.38605052  1
  H  H55  1  0.74433010  0.90321041  0.52870736  1
  H  H56  1  0.77437484  0.52498673  0.57729430  1
  H  H57  1  0.81622653  0.52643011  0.72257142  1
  H  H58  1  0.86248934  0.81390545  0.81437180  1
  H  H59  1  0.88077173  0.67404144  0.82944774  1
  H  H60  1  0.67296489  0.79613467  0.84041029  1
  H  H61  1  0.75015373  0.74249492  0.90797658  1
  H  H62  1  0.68193209  0.66029872  0.84577069  1
  H  H63  1  0.70733587  0.60491600  0.30075147  1
  Pb  Pb64  1  0.01168449  0.01586497  0.00201604  1
  Pb  Pb65  1  0.00881232  0.50736579  0.00418957  1
  Pb  Pb66  1  0.50781391  0.98621321  0.00040845  1
  Pb  Pb67  1  0.49751195  0.49515028  0.99224462  1
  C  C68  1  0.16911255  0.25683997  0.80479710  1
  C  C69  1  0.19036909  0.22660396  0.72558388  1
  C  C70  1  0.20382469  0.11624789  0.70369359  1
  C  C71  1  0.22555133  0.08329161  0.63121838  1
  C  C72  1  0.23347786  0.16499703  0.58130120  1
  C  C73  1  0.25113574  0.26920733  0.48536724  1
  C  C74  1  0.26932557  0.29746045  0.41043052  1
  C  C75  1  0.28553258  0.40048560  0.38524599  1
  C  C76  1  0.30157099  0.39853200  0.30844296  1
  C  C77  1  0.29743039  0.29480982  0.27508636  1
  C  C78  1  0.31044159  0.26291469  0.19569289  1
  C  C79  1  0.21933372  0.27680674  0.60158436  1
  C  C80  1  0.19746216  0.30790103  0.67486130  1
  C  C81  1  0.24923131  0.82780674  0.80947491  1
  C  C82  1  0.22205758  0.81021238  0.72802624  1
  C  C83  1  0.11185097  0.79536887  0.70384952  1
  C  C84  1  0.08071419  0.77275323  0.62975128  1
  C  C85  1  0.16408142  0.76521380  0.58048586  1
  C  C86  1  0.27090162  0.74838325  0.48481486  1
  C  C87  1  0.30051943  0.73103292  0.40897454  1
  C  C88  1  0.40402543  0.71927346  0.38334786  1
  C  C89  1  0.40361275  0.70538397  0.30541524  1
  C  C90  1  0.30065529  0.70601124  0.27169486  1
  C  C91  1  0.27052400  0.69494789  0.19114192  1
  C  C92  1  0.27589327  0.78091236  0.60301428  1
  C  C93  1  0.30522901  0.80380727  0.67801653  1
  C  C94  1  0.74477064  0.32309583  0.19536257  1
  C  C95  1  0.77337124  0.30107116  0.27449693  1
  C  C96  1  0.88411287  0.29586153  0.29773522  1
  C  C97  1  0.91675112  0.28071030  0.37093995  1
  C  C98  1  0.83427239  0.26927605  0.42035920  1
  C  C99  1  0.72879263  0.24790408  0.51569540  1
  C  C100  1  0.69889546  0.23026243  0.59057471  1
  C  C101  1  0.59457325  0.21837526  0.61518205  1
  C  C102  1  0.59343272  0.19966226  0.69141217  1
  C  C103  1  0.69602314  0.19781627  0.72543751  1
  C  C104  1  0.72490863  0.18071750  0.80439553  1
  C  C105  1  0.72189474  0.27223295  0.39850180  1
  C  C106  1  0.69120771  0.28965373  0.32465445  1
  C  C107  1  0.68634738  0.74347470  0.18730122  1
  C  C108  1  0.70456104  0.77265738  0.26861918  1
  C  C109  1  0.70881179  0.88350807  0.29325139  1
  C  C110  1  0.72035829  0.91649399  0.36800505  1
  C  C111  1  0.72910065  0.83425014  0.41767203  1
  C  C112  1  0.74596928  0.72909942  0.51380484  1
  C  C113  1  0.76279660  0.70025302  0.58978950  1
  C  C114  1  0.77757759  0.59708283  0.61479476  1
  C  C115  1  0.79843114  0.59816233  0.69218639  1
  C  C116  1  0.79886433  0.70113135  0.72655529  1
  C  C117  1  0.82441992  0.73232639  0.80607243  1
  C  C118  1  0.72647503  0.72186981  0.39461936  1
  C  C119  1  0.71300872  0.69075574  0.31903196  1
  S  S120  1  0.27371305  0.19908016  0.33891384  1
  S  S121  1  0.20344489  0.72347500  0.33661239  1
  S  S122  1  0.79489848  0.21803258  0.66240719  1
  S  S123  1  0.77294268  0.79731894  0.66268317  1
  I  I124  1  0.25893840  0.06919037  0.97601548  1
  I  I125  1  0.24866717  0.43461020  0.01818561  1
  I  I126  1  0.75728209  0.96270449  0.04211038  1
  I  I127  1  0.74867501  0.54242408  0.98763827  1
  I  I128  1  0.92462521  0.25951497  0.01218579  1
  I  I129  1  1.02013184  0.76210957  0.00376737  1
  I  I130  1  0.54689473  0.24237708  0.98197829  1
  I  I131  1  0.42389401  0.74195677  0.01007494  1
  I  I132  1  0.97287452  0.00931071  0.83038258  1
  I  I133  1  0.06220525  0.00857076  0.18746031  1
  I  I134  1  0.04271490  0.52643570  0.82743091  1
  I  I135  1  0.00194475  0.52642838  0.18171116  1
  I  I136  1  0.54326600  0.93563791  0.82500111  1
  I  I137  1  0.48212540  0.00762699  0.17695291  1
  I  I138  1  0.49052081  0.48860183  0.80968150  1
  I  I139  1  0.50684877  0.49372315  0.16478915  1
  N  N140  1  0.27325360  0.28603504  0.84953680  1
  N  N141  1  0.25343341  0.16296035  0.50688316  1
  N  N142  1  0.20266578  0.24898845  0.15261822  1
  N  N143  1  0.23001411  0.33913976  0.54089065  1
  N  N144  1  0.26950802  0.72023260  0.84312420  1
  N  N145  1  0.16374994  0.74485707  0.50492657  1
  N  N146  1  0.25923235  0.80370176  0.15747360  1
  N  N147  1  0.34000842  0.77078759  0.54236603  1
  N  N148  1  0.71350610  0.22103077  0.14838587  1
  N  N149  1  0.83588454  0.25405913  0.49534073  1
  N  N150  1  0.73741491  0.28663040  0.85100366  1
  N  N151  1  0.65872824  0.25825034  0.45872447  1
  N  N152  1  0.79079757  0.72701961  0.14803695  1
  N  N153  1  0.74135204  0.83598929  0.49382961  1
  N  N154  1  0.72591571  0.73281731  0.85257486  1
  N  N155  1  0.73725961  0.65892383  0.45541593  1
