# generated using pymatgen
data_H26PbC18(I2N)2
_symmetry_space_group_name_H-M   'P 1'
_cell_length_a   12.76056203
_cell_length_b   12.75305739
_cell_length_c   19.36971675
_cell_angle_alpha   89.98418865
_cell_angle_beta   90.02407672
_cell_angle_gamma   90.00129057
_symmetry_Int_Tables_number   1
_chemical_formula_structural   H26PbC18(I2N)2
_chemical_formula_sum   'H104 Pb4 C72 I16 N8'
_cell_volume   3152.15331040
_cell_formula_units_Z   4
loop_
 _symmetry_equiv_pos_site_id
 _symmetry_equiv_pos_as_xyz
  1  'x, y, z'
loop_
 _atom_site_type_symbol
 _atom_site_label
 _atom_site_symmetry_multiplicity
 _atom_site_fract_x
 _atom_site_fract_y
 _atom_site_fract_z
 _atom_site_occupancy
  H  H0  1  0.09693680  0.25245543  0.74026484  1
  H  H1  1  0.13253181  0.33343499  0.81094591  1
  H  H2  1  0.06534771  0.21323068  0.82580719  1
  H  H3  1  0.22092677  0.11379813  0.77890221  1
  H  H4  1  0.20438507  0.14328727  0.90058809  1
  H  H5  1  0.27152971  0.25467527  0.89660840  1
  H  H6  1  0.33091422  0.14284915  0.87692549  1
  H  H7  1  0.32342718  0.33251614  0.77870609  1
  H  H8  1  0.39167495  0.21218848  0.77027223  1
  H  H9  1  0.35817137  0.09564649  0.66772579  1
  H  H10  1  0.32526912  0.09254683  0.54162561  1
  H  H11  1  0.30494465  0.40434532  0.44730138  1
  H  H12  1  0.27439001  0.40661069  0.32107404  1
  H  H13  1  0.18419133  0.33228322  0.22098101  1
  H  H14  1  0.11448961  0.21232502  0.22852000  1
  H  H15  1  0.28396224  0.11232455  0.22115834  1
  H  H16  1  0.40901143  0.24651348  0.26389564  1
  H  H17  1  0.44334721  0.21038208  0.17837297  1
  H  H18  1  0.37817745  0.33141265  0.19373943  1
  H  H19  1  0.17946714  0.14826689  0.12060259  1
  H  H20  1  0.24577300  0.25801067  0.10419103  1
  H  H21  1  0.30739839  0.14414484  0.10083843  1
  H  H22  1  0.14565241  0.09507025  0.33217601  1
  H  H23  1  0.17660776  0.09227973  0.45827635  1
  H  H24  1  0.19755074  0.40486883  0.55320551  1
  H  H25  1  0.23056677  0.40767932  0.67898878  1
  H  H26  1  0.25241868  0.90320989  0.74030629  1
  H  H27  1  0.33346584  0.86747258  0.81094520  1
  H  H28  1  0.21345877  0.93492410  0.82584014  1
  H  H29  1  0.11372874  0.77930628  0.77905162  1
  H  H30  1  0.14377226  0.79591983  0.90082035  1
  H  H31  1  0.25494645  0.72863426  0.89661393  1
  H  H32  1  0.14305817  0.66936300  0.87725740  1
  H  H33  1  0.33215419  0.67641331  0.77881715  1
  H  H34  1  0.21176723  0.60834201  0.77029807  1
  H  H35  1  0.09547967  0.64192105  0.66766540  1
  H  H36  1  0.09247851  0.67475735  0.54157642  1
  H  H37  1  0.40418277  0.69511577  0.44733025  1
  H  H38  1  0.40641125  0.72583959  0.32112848  1
  H  H39  1  0.33195822  0.81603983  0.22098773  1
  H  H40  1  0.21202340  0.88572668  0.22854379  1
  H  H41  1  0.11216251  0.71607138  0.22117747  1
  H  H42  1  0.24637153  0.59102722  0.26399331  1
  H  H43  1  0.21044424  0.55665651  0.17841781  1
  H  H44  1  0.33121918  0.62208875  0.19392849  1
  H  H45  1  0.14800720  0.82033070  0.12045438  1
  H  H46  1  0.25772644  0.75414696  0.10422733  1
  H  H47  1  0.14402859  0.69219753  0.10091419  1
  H  H48  1  0.09496094  0.85437936  0.33218042  1
  H  H49  1  0.09222388  0.82332873  0.45824914  1
  H  H50  1  0.40468180  0.80239290  0.55334540  1
  H  H51  1  0.40741032  0.76943152  0.67913312  1
  H  H52  1  0.74490666  0.40744574  0.26286623  1
  H  H53  1  0.66286340  0.37348263  0.19195826  1
  H  H54  1  0.78174058  0.44291031  0.17766798  1
  H  H55  1  0.88453979  0.28740830  0.22158759  1
  H  H56  1  0.85485181  0.30991252  0.10140678  1
  H  H57  1  0.74330003  0.24355689  0.10318083  1
  H  H58  1  0.85508535  0.18167023  0.12080222  1
  H  H59  1  0.66826084  0.18001228  0.22052604  1
  H  H60  1  0.79024942  0.11396108  0.22787049  1
  H  H61  1  0.90507990  0.14373770  0.33170075  1
  H  H62  1  0.90776946  0.17416714  0.45785190  1
  H  H63  1  0.59530263  0.19461573  0.55285420  1
  H  H64  1  0.59237961  0.22779508  0.67860677  1
  H  H65  1  0.66674225  0.31926898  0.77822068  1
  H  H66  1  0.78482679  0.39117917  0.76956857  1
  H  H67  1  0.88871491  0.22441054  0.77920760  1
  H  H68  1  0.75575250  0.09531666  0.73939956  1
  H  H69  1  0.79483560  0.06471456  0.82515244  1
  H  H70  1  0.67229476  0.12730240  0.80955889  1
  H  H71  1  0.85401037  0.33297331  0.87698821  1
  H  H72  1  0.74416336  0.26918235  0.89585517  1
  H  H73  1  0.85787786  0.20660271  0.90089651  1
  H  H74  1  0.90395110  0.35619202  0.66726438  1
  H  H75  1  0.90728734  0.32276116  0.54126106  1
  H  H76  1  0.59562414  0.30197728  0.44695795  1
  H  H77  1  0.59334755  0.27163529  0.32074651  1
  H  H78  1  0.59270088  0.74496042  0.26291322  1
  H  H79  1  0.62689870  0.66284478  0.19212078  1
  H  H80  1  0.55730235  0.78158053  0.17764835  1
  H  H81  1  0.71260631  0.88477246  0.22155013  1
  H  H82  1  0.68972310  0.85491372  0.10142292  1
  H  H83  1  0.75632930  0.74340885  0.10319789  1
  H  H84  1  0.81799914  0.85531361  0.12059515  1
  H  H85  1  0.82015235  0.66845193  0.22052510  1
  H  H86  1  0.88604462  0.79059645  0.22786109  1
  H  H87  1  0.85629514  0.90530967  0.33169069  1
  H  H88  1  0.82580087  0.90796667  0.45781302  1
  H  H89  1  0.80535749  0.59533931  0.55297097  1
  H  H90  1  0.77225478  0.59245523  0.67872582  1
  H  H91  1  0.68065780  0.66689001  0.77829846  1
  H  H92  1  0.60897375  0.78514786  0.76959008  1
  H  H93  1  0.77570249  0.88887521  0.77934042  1
  H  H94  1  0.90468847  0.75582106  0.73943323  1
  H  H95  1  0.93531992  0.79468697  0.82518358  1
  H  H96  1  0.87261898  0.67216544  0.80953494  1
  H  H97  1  0.66731659  0.85367448  0.87732087  1
  H  H98  1  0.73108824  0.74377312  0.89584888  1
  H  H99  1  0.79356608  0.85752763  0.90109780  1
  H  H100  1  0.64388988  0.90419705  0.66718763  1
  H  H101  1  0.67725283  0.90749044  0.54120231  1
  H  H102  1  0.69805586  0.59563618  0.44697180  1
  H  H103  1  0.72851492  0.59337412  0.32078495  1
  Pb  Pb104  1  0.00084541  0.99961314  0.00720741  1
  Pb  Pb105  1  0.00171445  0.49994217  0.99797702  1
  Pb  Pb106  1  0.50061791  0.00103296  0.99797098  1
  Pb  Pb107  1  0.50397392  0.50020111  0.98549931  1
  C  C108  1  0.12482033  0.25182352  0.79384050  1
  C  C109  1  0.22863439  0.19479586  0.79767084  1
  C  C110  1  0.31679717  0.25167446  0.75907655  1
  C  C111  1  0.29717957  0.25193723  0.68229038  1
  C  C112  1  0.32210345  0.16339157  0.64259937  1
  C  C113  1  0.30329473  0.16145465  0.57170074  1
  C  C114  1  0.25936772  0.24870299  0.53795925  1
  C  C115  1  0.24206606  0.24868212  0.46234702  1
  C  C116  1  0.26871939  0.33675120  0.42232996  1
  C  C117  1  0.25158136  0.33796801  0.35122583  1
  C  C118  1  0.20646431  0.25161520  0.31775052  1
  C  C119  1  0.18930051  0.25136151  0.24069439  1
  C  C120  1  0.27861381  0.19412698  0.20339339  1
  C  C121  1  0.38336876  0.24900568  0.20989108  1
  C  C122  1  0.18076541  0.16320853  0.35737218  1
  C  C123  1  0.19855529  0.16143028  0.42840173  1
  C  C124  1  0.23349758  0.33694839  0.57801422  1
  C  C125  1  0.25180133  0.33836921  0.64901239  1
  C  C126  1  0.25187492  0.87532276  0.79388292  1
  C  C127  1  0.19472613  0.77153179  0.79775763  1
  C  C128  1  0.25136310  0.68320700  0.75914914  1
  C  C129  1  0.25171239  0.70284435  0.68235283  1
  C  C130  1  0.16323043  0.67794635  0.64258599  1
  C  C131  1  0.16135104  0.69672198  0.57168521  1
  C  C132  1  0.24859466  0.74060645  0.53798739  1
  C  C133  1  0.24857686  0.75794277  0.46236240  1
  C  C134  1  0.33659934  0.73135870  0.42236003  1
  C  C135  1  0.33778879  0.74858284  0.35126459  1
  C  C136  1  0.25146161  0.79369202  0.31776928  1
  C  C137  1  0.25110613  0.81089650  0.24070838  1
  C  C138  1  0.19390354  0.72146132  0.20343917  1
  C  C139  1  0.24886191  0.61673003  0.21000481  1
  C  C140  1  0.16309573  0.81930311  0.35738028  1
  C  C141  1  0.16135732  0.80144060  0.42840441  1
  C  C142  1  0.33676589  0.76645862  0.57811678  1
  C  C143  1  0.33813987  0.74818663  0.64911087  1
  C  C144  1  0.74462045  0.38158280  0.20888991  1
  C  C145  1  0.80342295  0.27881806  0.20312611  1
  C  C146  1  0.74897749  0.18750945  0.24018917  1
  C  C147  1  0.74847953  0.20422689  0.31730651  1
  C  C148  1  0.83689166  0.17857941  0.35694769  1
  C  C149  1  0.83859541  0.19608624  0.42799232  1
  C  C150  1  0.75134338  0.23936789  0.46197152  1
  C  C151  1  0.75128831  0.25667879  0.53759346  1
  C  C152  1  0.66312636  0.23072703  0.57764377  1
  C  C153  1  0.66159129  0.24917422  0.64860823  1
  C  C154  1  0.74780771  0.29494751  0.68184980  1
  C  C155  1  0.74768321  0.31500740  0.75857839  1
  C  C156  1  0.80724614  0.22882119  0.79743895  1
  C  C157  1  0.75438863  0.12282657  0.79305005  1
  C  C158  1  0.83633336  0.31987925  0.64219495  1
  C  C159  1  0.83839972  0.30078176  0.57131906  1
  C  C160  1  0.66324948  0.26592215  0.42196847  1
  C  C161  1  0.66207008  0.24893872  0.35085468  1
  C  C162  1  0.61863658  0.74464764  0.20896055  1
  C  C163  1  0.72124410  0.80360997  0.20313613  1
  C  C164  1  0.81258673  0.74919723  0.24018300  1
  C  C165  1  0.79586577  0.74862405  0.31731458  1
  C  C166  1  0.82146738  0.83705714  0.35693259  1
  C  C167  1  0.80391959  0.83875555  0.42798451  1
  C  C168  1  0.76063600  0.75145257  0.46197927  1
  C  C169  1  0.74330692  0.75138392  0.53760610  1
  C  C170  1  0.76925859  0.66321039  0.57771269  1
  C  C171  1  0.75085111  0.66168471  0.64869609  1
  C  C172  1  0.70510474  0.74797139  0.68188499  1
  C  C173  1  0.68505546  0.74787950  0.75862279  1
  C  C174  1  0.77129158  0.80731192  0.79750573  1
  C  C175  1  0.87717294  0.75434061  0.79307550  1
  C  C176  1  0.68016920  0.83651754  0.64216947  1
  C  C177  1  0.69922891  0.83856802  0.57128497  1
  C  C178  1  0.73412116  0.66330147  0.42198280  1
  C  C179  1  0.75116129  0.66214348  0.35087195  1
  I  I180  1  0.24849007  0.94906402  0.00324856  1
  I  I181  1  0.24589281  0.54994215  0.99894718  1
  I  I182  1  0.75326659  0.05112792  0.00120627  1
  I  I183  1  0.75164241  0.45084176  0.99840919  1
  I  I184  1  0.05045564  0.24777304  0.00239053  1
  I  I185  1  0.94828425  0.75239442  0.00232924  1
  I  I186  1  0.44880901  0.24665413  -0.00054064  1
  I  I187  1  0.54813981  0.75211266  0.99736531  1
  I  I188  1  0.00453002  0.00160982  0.84854103  1
  I  I189  1  0.00092540  0.00105461  0.17587300  1
  I  I190  1  0.99645019  0.49991677  0.83209710  1
  I  I191  1  0.99713645  0.49851295  0.15890949  1
  I  I192  1  0.50077353  0.00224829  0.83213143  1
  I  I193  1  0.50289561  0.99752059  0.15891514  1
  I  I194  1  0.49927745  0.49965375  0.82227920  1
  I  I195  1  0.49614132  0.49995174  0.14601553  1
  N  N196  1  0.26055788  0.18329742  0.87252182  1
  N  N197  1  0.25066770  0.18550005  0.12765156  1
  N  N198  1  0.18348423  0.73966469  0.87265136  1
  N  N199  1  0.18525866  0.74914802  0.12765321  1
  N  N200  1  0.81487575  0.25130036  0.12747492  1
  N  N201  1  0.81631271  0.26109544  0.87236468  1
  N  N202  1  0.74848555  0.81503325  0.12743191  1
  N  N203  1  0.73914586  0.81609114  0.87247476  1
