# generated using pymatgen
data_H22PbC20S4(I2N)2
_symmetry_space_group_name_H-M   'P 1'
_cell_length_a   12.81616377
_cell_length_b   12.95322816
_cell_length_c   24.28312778
_cell_angle_alpha   93.12854449
_cell_angle_beta   92.10414912
_cell_angle_gamma   91.94325019
_symmetry_Int_Tables_number   1
_chemical_formula_structural   H22PbC20S4(I2N)2
_chemical_formula_sum   'H88 Pb4 C80 S16 I16 N8'
_cell_volume   4019.93044528
_cell_formula_units_Z   4
loop_
 _symmetry_equiv_pos_site_id
 _symmetry_equiv_pos_as_xyz
  1  'x, y, z'
loop_
 _atom_site_type_symbol
 _atom_site_label
 _atom_site_symmetry_multiplicity
 _atom_site_fract_x
 _atom_site_fract_y
 _atom_site_fract_z
 _atom_site_occupancy
  H  H0  1  0.41366542  0.19379503  0.91820656  1
  H  H1  1  0.47313934  0.17081530  0.85393126  1
  H  H2  1  0.37610141  0.08274859  0.87486510  1
  H  H3  1  0.34338702  0.31032912  0.85218878  1
  H  H4  1  0.15939398  0.26965127  0.86049034  1
  H  H5  1  0.18456322  0.14665618  0.87453066  1
  H  H6  1  0.22994418  0.24491385  0.91728958  1
  H  H7  1  0.32597590  0.03402387  0.77900340  1
  H  H8  1  0.31014553  0.04285755  0.67139148  1
  H  H9  1  0.28936460  0.41400661  0.64124031  1
  H  H10  1  0.26642838  0.42776196  0.53453046  1
  H  H11  1  0.24280875  0.06921873  0.45529653  1
  H  H12  1  0.21892512  0.08789247  0.34884978  1
  H  H13  1  0.21891302  0.46438043  0.32805499  1
  H  H14  1  0.21165090  0.48736611  0.22096512  1
  H  H15  1  0.21607822  0.38288759  0.12995319  1
  H  H16  1  0.03226484  0.35642978  0.14535356  1
  H  H17  1  0.06225677  0.27311101  0.08803122  1
  H  H18  1  0.04638046  0.22091089  0.15333494  1
  H  H19  1  0.21972221  0.15320011  0.12505400  1
  H  H20  1  0.33025397  0.23140784  0.13260663  1
  H  H21  1  0.25067470  0.23568793  0.07703454  1
  H  H22  1  0.19933764  0.59519408  0.91806104  1
  H  H23  1  0.17437815  0.52420806  0.85427159  1
  H  H24  1  0.08834046  0.62178965  0.87511237  1
  H  H25  1  0.31951024  0.65303391  0.84958357  1
  H  H26  1  0.28620872  0.83471803  0.85803664  1
  H  H27  1  0.16381716  0.81518215  0.87585859  1
  H  H28  1  0.26440313  0.77843842  0.91702413  1
  H  H29  1  0.03726128  0.67404820  0.78241648  1
  H  H30  1  0.04140255  0.69341084  0.67572645  1
  H  H31  1  0.41598217  0.71016232  0.63749622  1
  H  H32  1  0.42850141  0.73572666  0.53211747  1
  H  H33  1  0.06749398  0.75749092  0.45783096  1
  H  H34  1  0.08808490  0.77938535  0.35235506  1
  H  H35  1  0.46834754  0.78576790  0.32854016  1
  H  H36  1  0.49437431  0.78484551  0.22156957  1
  H  H37  1  0.39059169  0.77077030  0.12966380  1
  H  H38  1  0.36448327  0.95451047  0.15383571  1
  H  H39  1  0.28305951  0.91867300  0.09477434  1
  H  H40  1  0.22868059  0.93026898  0.16124538  1
  H  H41  1  0.15984074  0.73588702  0.13501781  1
  H  H42  1  0.24679159  0.64894508  0.11969923  1
  H  H43  1  0.22382485  0.74470318  0.07768641  1
  H  H44  1  0.78079838  0.10143077  0.07787612  1
  H  H45  1  0.81518871  0.04074043  0.13905339  1
  H  H46  1  0.89671616  0.14134523  0.11682728  1
  H  H47  1  0.67038844  0.16555844  0.15042488  1
  H  H48  1  0.71673520  0.34989811  0.14844421  1
  H  H49  1  0.83347007  0.32113960  0.12315455  1
  H  H50  1  0.72281130  0.28498183  0.08737765  1
  H  H51  1  0.95548341  0.17253680  0.21554715  1
  H  H52  1  0.95426919  0.18721571  0.32344150  1
  H  H53  1  0.58200509  0.21050575  0.36187792  1
  H  H54  1  0.56972486  0.23405674  0.46904674  1
  H  H55  1  0.93175246  0.25606432  0.54390458  1
  H  H56  1  0.91291560  0.28194504  0.65084308  1
  H  H57  1  0.53333823  0.28679344  0.67693033  1
  H  H58  1  0.51524254  0.30090302  0.78455658  1
  H  H59  1  0.62416234  0.29050487  0.87304901  1
  H  H60  1  0.66484043  0.47094951  0.86914328  1
  H  H61  1  0.74876038  0.42458385  0.92064500  1
  H  H62  1  0.79995847  0.45084641  0.85530555  1
  H  H63  1  0.85116839  0.25459879  0.86228072  1
  H  H64  1  0.75077526  0.16132410  0.86595943  1
  H  H65  1  0.78456965  0.24639106  0.91909237  1
  H  H66  1  0.90849719  0.77841724  0.08455323  1
  H  H67  1  0.97173250  0.81035726  0.14981282  1
  H  H68  1  0.87689502  0.89230877  0.12361876  1
  H  H69  1  0.83500366  0.66782427  0.15257717  1
  H  H70  1  0.65630301  0.70065290  0.13704670  1
  H  H71  1  0.68048312  0.82732519  0.12572250  1
  H  H72  1  0.72250288  0.73280081  0.08229833  1
  H  H73  1  0.82242327  0.95396129  0.21743441  1
  H  H74  1  0.80859469  0.95531533  0.32457866  1
  H  H75  1  0.79052821  0.58520690  0.36167513  1
  H  H76  1  0.76598993  0.57324296  0.46752428  1
  H  H77  1  0.74492914  0.93147324  0.54310759  1
  H  H78  1  0.71815879  0.91313580  0.64857489  1
  H  H79  1  0.71041707  0.53740430  0.67337605  1
  H  H80  1  0.69284663  0.52042013  0.77960958  1
  H  H81  1  0.69774826  0.63398411  0.87033679  1
  H  H82  1  0.51576363  0.67154260  0.85035867  1
  H  H83  1  0.56221157  0.74998776  0.90836660  1
  H  H84  1  0.54792880  0.80586256  0.84287539  1
  H  H85  1  0.73493451  0.86152542  0.86453750  1
  H  H86  1  0.83237083  0.77621918  0.86379344  1
  H  H87  1  0.75655010  0.79099249  0.91840101  1
  Pb  Pb88  1  0.03153934  0.99713284  0.99101097  1
  Pb  Pb89  1  0.98369712  0.49522287  0.99480241  1
  Pb  Pb90  1  0.53823367  0.98239622  0.99657969  1
  Pb  Pb91  1  0.48881823  0.48033580  0.00623021  1
  C  C92  1  0.39948254  0.16507612  0.87513517  1
  C  C93  1  0.31850649  0.22807618  0.84641588  1
  C  C94  1  0.30463495  0.20002956  0.78596176  1
  C  C95  1  0.31263326  0.10494340  0.75813174  1
  C  C96  1  0.30502256  0.10988418  0.70013970  1
  C  C97  1  0.29220011  0.20965179  0.68319345  1
  C  C98  1  0.28280494  0.24581492  0.62813581  1
  C  C99  1  0.28155843  0.34712507  0.61198179  1
  C  C100  1  0.26935344  0.35453327  0.55450578  1
  C  C101  1  0.26122497  0.25899246  0.52531657  1
  C  C102  1  0.24771522  0.23769347  0.46666894  1
  C  C103  1  0.23930524  0.14338858  0.43630825  1
  C  C104  1  0.22622616  0.15353368  0.37894928  1
  C  C105  1  0.22467777  0.25571033  0.36425456  1
  C  C106  1  0.21613646  0.29722392  0.31045375  1
  C  C107  1  0.21621785  0.40012184  0.29712063  1
  C  C108  1  0.21388878  0.41292354  0.23970917  1
  C  C109  1  0.21097097  0.32056079  0.20865171  1
  C  C110  1  0.19017452  0.31043610  0.14770202  1
  C  C111  1  0.07536550  0.28829144  0.13265924  1
  C  C112  1  0.17060611  0.60087359  0.87519374  1
  C  C113  1  0.23800912  0.67672380  0.84551704  1
  C  C114  1  0.20728810  0.68489168  0.78576253  1
  C  C115  1  0.10907986  0.68314890  0.76028403  1
  C  C116  1  0.11134498  0.69325057  0.70260350  1
  C  C117  1  0.21182341  0.70241491  0.68320751  1
  C  C118  1  0.24621067  0.71392170  0.62773390  1
  C  C119  1  0.34803833  0.71737661  0.60983886  1
  C  C120  1  0.35478409  0.73102431  0.55296549  1
  C  C121  1  0.25823726  0.73839217  0.52557681  1
  C  C122  1  0.23722842  0.75211796  0.46767373  1
  C  C123  1  0.14277861  0.76036891  0.43841035  1
  C  C124  1  0.15391667  0.77199868  0.38141297  1
  C  C125  1  0.25710137  0.77254103  0.36557756  1
  C  C126  1  0.29989588  0.77909360  0.31156565  1
  C  C127  1  0.40415255  0.78267289  0.29778691  1
  C  C128  1  0.41861935  0.78092427  0.24035797  1
  C  C129  1  0.32633561  0.77686020  0.20931373  1
  C  C130  1  0.31804249  0.79429239  0.14884824  1
  C  C131  1  0.29681242  0.90602986  0.13882827  1
  C  C132  1  0.81520593  0.11504722  0.11971585  1
  C  C133  1  0.75347277  0.19019231  0.15408928  1
  C  C134  1  0.78805171  0.19879820  0.21364225  1
  C  C135  1  0.88563547  0.18773214  0.23844038  1
  C  C136  1  0.88480135  0.19368683  0.29677130  1
  C  C137  1  0.78574060  0.20750165  0.31695363  1
  C  C138  1  0.75176572  0.21631325  0.37282717  1
  C  C139  1  0.64983264  0.21814812  0.39035309  1
  C  C140  1  0.64317662  0.23053263  0.44794610  1
  C  C141  1  0.74010170  0.23820720  0.47584724  1
  C  C142  1  0.76175891  0.25213964  0.53428101  1
  C  C143  1  0.85698337  0.26029884  0.56372256  1
  C  C144  1  0.84684905  0.27432816  0.62120690  1
  C  C145  1  0.74363540  0.27696572  0.63683941  1
  C  C146  1  0.70273707  0.28751993  0.69124995  1
  C  C147  1  0.59949722  0.29040589  0.70652454  1
  C  C148  1  0.58939772  0.29666776  0.76432468  1
  C  C149  1  0.68389065  0.29928075  0.79346414  1
  C  C150  1  0.69872138  0.31215609  0.85497489  1
  C  C151  1  0.73130033  0.42163805  0.87603323  1
  C  C152  1  0.89719919  0.81130958  0.12641726  1
  C  C153  1  0.81532762  0.74989717  0.15545809  1
  C  C154  1  0.80656829  0.78528073  0.21481367  1
  C  C155  1  0.81229645  0.88392305  0.23981384  1
  C  C156  1  0.80572086  0.88471809  0.29791998  1
  C  C157  1  0.79606681  0.78617137  0.31767950  1
  C  C158  1  0.78678970  0.75319102  0.37312038  1
  C  C159  1  0.78379985  0.65243992  0.39011312  1
  C  C160  1  0.77074931  0.64594201  0.44706187  1
  C  C161  1  0.76361941  0.74179227  0.47511179  1
  C  C162  1  0.74894546  0.76326573  0.53296053  1
  C  C163  1  0.74052785  0.85751496  0.56238132  1
  C  C164  1  0.72598637  0.84758756  0.61913456  1
  C  C165  1  0.72299404  0.74560471  0.63427163  1
  C  C166  1  0.71080576  0.70553980  0.68798969  1
  C  C167  1  0.70667366  0.60350512  0.70286078  1
  C  C168  1  0.69826398  0.59409234  0.76026511  1
  C  C169  1  0.69545482  0.68817649  0.78951011  1
  C  C170  1  0.67971079  0.70535389  0.85002890  1
  C  C171  1  0.56957574  0.73628574  0.86366386  1
  S  S172  1  0.20955912  0.21643606  0.25061501  1
  S  S173  1  0.23916177  0.33908254  0.42280384  1
  S  S174  1  0.26889404  0.15971800  0.57062338  1
  S  S175  1  0.28814995  0.29618588  0.74012258  1
  S  S176  1  0.22006639  0.77643298  0.25173505  1
  S  S177  1  0.34015141  0.75906367  0.42290266  1
  S  S178  1  0.15865342  0.72779949  0.57221943  1
  S  S179  1  0.30289870  0.69805053  0.73787274  1
  S  S180  1  0.78681731  0.29550112  0.74920691  1
  S  S181  1  0.65931432  0.26212760  0.57912191  1
  S  S182  1  0.83974180  0.22972437  0.42918599  1
  S  S183  1  0.69478631  0.21406711  0.26274278  1
  S  S184  1  0.70157600  0.78949099  0.74579956  1
  S  S185  1  0.73853198  0.66203826  0.57697389  1
  S  S186  1  0.77375841  0.84029110  0.42931337  1
  S  S187  1  0.79429396  0.69361346  0.26323794  1
  I  I188  1  0.26535026  0.06425143  0.99330704  1
  I  I189  1  0.25353009  0.40589118  0.00905627  1
  I  I190  1  0.76480756  0.91091604  0.00306591  1
  I  I191  1  0.76208159  0.58905192  0.00295192  1
  I  I192  1  0.91051581  0.26879036  0.00458504  1
  I  I193  1  0.07475545  0.76612401  0.99525048  1
  I  I194  1  0.57841248  0.25583725  0.01134926  1
  I  I195  1  0.41442672  0.76397835  0.99786935  1
  I  I196  1  0.03492856  0.96502590  0.85825661  1
  I  I197  1  0.06849444  0.02005006  0.12213914  1
  I  I198  1  0.00884382  0.37091367  0.85123326  1
  I  I199  1  0.01554826  0.55441512  0.12038425  1
  I  I200  1  0.62835853  0.01349522  0.85831861  1
  I  I201  1  0.56323779  0.98173773  0.12466581  1
  I  I202  1  0.44568671  0.48006189  0.87766930  1
  I  I203  1  0.52652414  0.53073356  0.13897286  1
  N  N204  1  0.21681929  0.22116739  0.87609794  1
  N  N205  1  0.25306860  0.22707416  0.11946239  1
  N  N206  1  0.23770166  0.78299077  0.87613203  1
  N  N207  1  0.23263357  0.72661720  0.11890011  1
  N  N208  1  0.75764751  0.29438604  0.12724710  1
  N  N209  1  0.77637664  0.23791646  0.87632015  1
  N  N210  1  0.71150328  0.75363120  0.12362947  1
  N  N211  1  0.75700723  0.78708329  0.87531117  1
